Circuit: * C:\Users\joa-m\InformesTC\TP5\EJ3\SedraConPablomenos05.asc

Direct Newton iteration for .op point skipped.
Starting Gmin stepping
Gmin = 10
vernier = 0.5
vernier = 0.25
vernier = 0.125
vernier = 0.0625
Gmin = 6.018
vernier = 0.03125
vernier = 0.015625
vernier = 0.0078125
vernier = 0.00390625
Gmin = 5.98873
vernier = 0.00195313
vernier = 0.000976563
vernier = 0.000488281
Gmin = 5.98289
Gmin = 0
Gmin stepping failed

Starting source stepping with srcstepmethod=0
Source Step = 3.0303%
Source Step = 33.3333%
Source Step = 63.6364%
Source Step = 93.9394%
Source stepping succeeded in finding the operating point.

Ignoring empty pin current: Ix(u7:1)
Ignoring empty pin current: Ix(u7:2)
Ignoring empty pin current: Ix(u7:1)
Ignoring empty pin current: Ix(u7:2)
.step run=1
.step run=2
.step run=3
.step run=4
.step run=5
.step run=6
.step run=7
.step run=8
.step run=9
.step run=10

Date: Fri Oct 26 18:02:51 2018
Total elapsed time: 6.765 seconds.

tnom = 27
temp = 27
method = trap
totiter = 1638
traniter = 0
tranpoints = 0
accept = 0
rejected = 0
matrix size = 231
fillins = 1282
solver = Normal
Matrix Compiler1:    6553 opcodes
Matrix Compiler2: 43.13 KB object code size  10.3/8.8/[3.9]

