Circuit: * C:\Users\ariel\informesTC\TP7\Simulacion\KHN_test\FiltroHP_N10_MC.asc

WARNING: Less than two connections to node VIN.  This node is used by V4.
Early termination of direct N-R iteration.
Direct Newton iteration failed to find .op point.  (Use ".option noopiter" to skip.)
Starting Gmin stepping
Gmin = 10
vernier = 0.5
vernier = 0.25
vernier = 0.125
Gmin = 5.6588
vernier = 0.0625
vernier = 0.03125
vernier = 0.015625
Gmin = 5.48561
vernier = 0.0078125
vernier = 0.00390625
vernier = 0.00195313
vernier = 0.000976563
vernier = 0.000488281
Gmin = 5.50166
Gmin = 0
Gmin stepping failed

Starting source stepping with srcstepmethod=0
Source Step = 3.0303%
Source Step = 33.3333%
Source Step = 63.6364%
Source Step = 93.9394%
Source stepping succeeded in finding the operating point.


Date: Sun Nov 25 15:47:12 2018
Total elapsed time: 1.364 seconds.

tnom = 27
temp = 27
method = trap
totiter = 1667
traniter = 0
tranpoints = 0
accept = 0
rejected = 0
matrix size = 342
fillins = 2446
solver = Normal
Matrix Compiler1:   13154 opcodes
Matrix Compiler2: 71.91 KB object code size  14.7/10.7/[4.1]

