Circuit: * C:\Users\ariel\informesTC\TP7\Simulacion\KHN_test\FiltroHP_N10_MC.asc

WARNING: Node N006 is floating.

WARNING: Less than two connections to node N006.  This node is used by R6.
WARNING: Less than two connections to node N037.  This node is used by V1.
Early termination of direct N-R iteration.
Direct Newton iteration failed to find .op point.  (Use ".option noopiter" to skip.)
Starting Gmin stepping
Increasing initial diagonal Gmin to 100
Gmin = 100
vernier = 0.5
vernier = 0.25
Gmin = 29.1271
vernier = 0.125
vernier = 0.0625
vernier = 0.03125
Gmin = 27.3805
vernier = 0.015625
vernier = 0.0078125
vernier = 0.00390625
vernier = 0.00195313
vernier = 0.000976563
Gmin = 27.5406
vernier = 0.000488281
Gmin = 0
Gmin stepping failed

Starting source stepping with srcstepmethod=0
Source Step = 3.0303%
Source Step = 33.3333%
Source Step = 63.6364%
Source Step = 93.9394%
Source stepping succeeded in finding the operating point.


Date: Sun Nov 25 12:20:02 2018
Total elapsed time: 3.238 seconds.

tnom = 27
temp = 27
method = modified trap
totiter = 4722
traniter = 2988
tranpoints = 1495
accept = 1228
rejected = 267
matrix size = 343
fillins = 2597
solver = Normal
Thread vector: 65.2/18.8[8] 32.9/19.7[8] 32.6/13.0[8] 7.5/4.5[8]  2592/500
Matrix Compiler1: 291.68 KB object code size  164.3/92.0/[46.3]
Matrix Compiler2: 74.01 KB object code size  16.6/17.1/[16.5]

