Circuit: * C:\Users\newtonis\InformesTC\TP3\EJ3\tp3 ej3\ej3 tp3 no ideal.asc

WARNING: Less than two connections to node VCC+.  This node is used by V1.
WARNING: Less than two connections to node VCC-.  This node is used by V2.
Ignoring empty pin current: Ix(u1:1)
Ignoring empty pin current: Ix(u1:2)
Ignoring empty pin current: Ix(u3:1)
Ignoring empty pin current: Ix(u3:2)
Ignoring empty pin current: Ix(u2:1)
Ignoring empty pin current: Ix(u2:2)
Ignoring empty pin current: Ix(u4:1)
Ignoring empty pin current: Ix(u4:2)

Date: Sun Sep 16 20:06:17 2018
Total elapsed time: 0.023 seconds.

tnom = 27
temp = 27
method = trap
totiter = 0
traniter = 0
tranpoints = 0
accept = 0
rejected = 0
matrix size = 20
fillins = 16
solver = Normal

