Circuit: * C:\Users\newtonis\InformesTC\TP3\EJ3\tp3 ej3\final.asc

Early termination of direct N-R iteration.
Direct Newton iteration failed to find .op point.  (Use ".option noopiter" to skip.)
Starting Gmin stepping
Gmin = 10
vernier = 0.5
vernier = 0.25
vernier = 0.125
Gmin = 5.6588
vernier = 0.0625
vernier = 0.03125
vernier = 0.015625
Gmin = 5.48561
vernier = 0.0078125
vernier = 0.00390625
vernier = 0.00195313
vernier = 0.000976563
Gmin = 5.49362
vernier = 0.000488281
Gmin = 0
Gmin stepping failed

Starting source stepping with srcstepmethod=0
Source Step = 3.0303%
Source Step = 33.3333%
Source Step = 63.6364%
Source Step = 93.9394%
Source stepping succeeded in finding the operating point.


Date: Wed Sep 19 20:16:03 2018
Total elapsed time: 0.228 seconds.

tnom = 27
temp = 27
method = trap
totiter = 1615
traniter = 0
tranpoints = 0
accept = 0
rejected = 0
matrix size = 100
fillins = 849
solver = Normal
Matrix Compiler1:    5772 opcodes
Matrix Compiler2: 23.50 KB object code size  3.6/2.5/[0.9]

