Circuit: * C:\Users\ariel\InformesTC\TP3\EJ3\tp3 ej3\final.asc

Early termination of direct N-R iteration.
Direct Newton iteration failed to find .op point.  (Use ".option noopiter" to skip.)
Starting Gmin stepping
Gmin = 10
vernier = 0.5
vernier = 0.25
vernier = 0.125
Gmin = 5.6588
vernier = 0.0625
vernier = 0.03125
vernier = 0.015625
Gmin = 5.48561
vernier = 0.0078125
vernier = 0.00390625
vernier = 0.00195313
vernier = 0.000976563
Gmin = 5.49362
vernier = 0.000488281
Gmin = 0
Gmin stepping failed

Starting source stepping with srcstepmethod=0
Source Step = 3.0303%
Source Step = 33.3333%
Source Step = 63.6364%
Source Step = 93.9394%
Source stepping succeeded in finding the operating point.

.step run=1
.step run=6
.step run=11
.step run=16
.step run=21
.step run=26
.step run=31
.step run=36
.step run=41
.step run=46
.step run=51
.step run=56
.step run=61
.step run=66
.step run=71
.step run=76
.step run=81
.step run=86
.step run=91
.step run=96
.step run=100

Date: Thu Sep 20 20:39:00 2018
Total elapsed time: 5.212 seconds.

tnom = 27
temp = 27
method = trap
totiter = 1618
traniter = 0
tranpoints = 0
accept = 0
rejected = 0
matrix size = 100
fillins = 831
solver = Normal
Matrix Compiler1:    5582 opcodes
Matrix Compiler2: 23.23 KB object code size  4.3/3.6/[0.9]

