Circuit: * C:\Users\newtonis\InformesTC\TP3\EJ3\tp3 ej3\oscila.asc

Early termination of direct N-R iteration.
Direct Newton iteration failed to find .op point.  (Use ".option noopiter" to skip.)
Starting Gmin stepping
Gmin = 10
vernier = 0.5
vernier = 0.25
vernier = 0.125
Gmin = 5.5165
vernier = 0.0625
vernier = 0.03125
vernier = 0.015625
vernier = 0.0078125
Gmin = 5.49501
vernier = 0.00390625
vernier = 0.00195313
vernier = 0.000976563
vernier = 0.000488281
Gmin = 5.50104
Gmin = 0
Gmin stepping failed

Starting source stepping with srcstepmethod=0
Source Step = 3.0303%
Source Step = 33.3333%
Source Step = 63.6364%
Source Step = 93.9394%
Source stepping succeeded in finding the operating point.


Date: Sun Sep 23 20:42:40 2018
Total elapsed time: 0.485 seconds.

tnom = 27
temp = 27
method = modified trap
totiter = 4111
traniter = 2082
tranpoints = 1042
accept = 1042
rejected = 0
matrix size = 80
fillins = 624
solver = Normal
Thread vector: 20.2/6.6[2] 2.2/1.6[2] 2.4/1.6[2] 0.6/1.1[1]  2592/500
Matrix Compiler1: 67.97 KB object code size  8.7/4.8/[2.6]
Matrix Compiler2: 18.04 KB object code size  3.2/2.7/[0.9]

