Circuit: * C:\Users\ariel\InformesTC\TP3\EJ3\tp3 ej3\spice_test_no_ideal_01.asc

Fatal Error: C:\users\ariel\informestc\tp3\ej3\tp3: Missing node(s).
