Circuit: * C:\Users\newtonis\InformesTC\TP2\graficos\ejercicio4\spice\integrador.asc

Early termination of direct N-R iteration.
Direct Newton iteration failed to find .op point.  (Use ".option noopiter" to skip.)
Starting Gmin stepping
Increasing initial diagonal Gmin to 100
Gmin = 100
vernier = 0.5
vernier = 0.25
vernier = 0.125
Gmin = 40.96
vernier = 0.0625
vernier = 0.03125
vernier = 0.015625
vernier = 0.0078125
Gmin = 39.1077
vernier = 0.00390625
vernier = 0.00195313
vernier = 0.000976563
Gmin = 38.9649
vernier = 0.000488281
Gmin = 0
Gmin stepping failed

Starting source stepping with srcstepmethod=0
Source Step = 3.0303%
Source Step = 33.3333%
Source Step = 63.6364%
Source Step = 93.9394%
Source stepping succeeded in finding the operating point.


Date: Sun Sep 02 20:25:28 2018
Total elapsed time: 0.047 seconds.

tnom = 27
temp = 27
method = trap
totiter = 1723
traniter = 0
tranpoints = 0
accept = 0
rejected = 0
matrix size = 56
fillins = 136
solver = Normal
Matrix Compiler1:     594 opcodes
Matrix Compiler2: off  [0.4]/0.5/0.5

