Circuit: * C:\Users\newtonis\InformesTC\TP2\graficos\ejercicio4\spice\integrador_caso_particular.asc

Direct Newton iteration failed to find .op point.  (Use ".option noopiter" to skip.)
Starting Gmin stepping
Increasing initial diagonal Gmin to 100
Gmin = 100
vernier = 0.5
vernier = 0.25
Gmin = 34.2672
vernier = 0.125
vernier = 0.0625
vernier = 0.03125
vernier = 0.015625
Gmin = 35.4324
vernier = 0.0078125
vernier = 0.00390625
vernier = 0.00195313
vernier = 0.000976563
Gmin = 35.4496
vernier = 0.000488281
Gmin = 0
Gmin stepping failed

Starting source stepping with srcstepmethod=0
Source Step = 3.0303%
Source Step = 33.3333%
Source Step = 63.6364%
Source Step = 93.9394%
Source stepping succeeded in finding the operating point.


Date: Tue Aug 28 19:14:53 2018
Total elapsed time: 0.792 seconds.

tnom = 27
temp = 27
method = modified trap
totiter = 109419
traniter = 107628
tranpoints = 43656
accept = 29030
rejected = 14626
matrix size = 58
fillins = 89
solver = Normal
Matrix Compiler1: 6.01 KB object code size  1.2/0.9/[0.3]
Matrix Compiler2: 6.26 KB object code size  0.5/0.7/[0.4]

