Circuit: * C:\Users\ariel\InformesTC\TP2\graficos\ejercicio4\spice\integrador.asc

Direct Newton iteration failed to find .op point.  (Use ".option noopiter" to skip.)
Starting Gmin stepping
Increasing initial diagonal Gmin to 100
Increasing initial diagonal Gmin to 1000
Increasing initial diagonal Gmin to 10000
Increasing initial diagonal Gmin to 100000
Gmin = 100000
Gmin = 10737.4
Gmin = 1152.92
vernier = 0.5
vernier = 0.25
Gmin = 675.08
vernier = 0.333333
vernier = 0.166667
vernier = 0.222222
Gmin = 461.926
vernier = 0.111111
vernier = 0.148148
vernier = 0.074074
Gmin = 409.845
vernier = 0.0987653
vernier = 0.0493827
Gmin = 360.416
vernier = 0.0658435
vernier = 0.0877914
vernier = 0.0438957
Gmin = 319.295
vernier = 0.0585276
vernier = 0.0292638
Gmin = 288.402
vernier = 0.0390184
Gmin = 264.905
vernier = 0.0520245
vernier = 0.0260122
vernier = 0.034683
Gmin = 249.632
vernier = 0.046244
vernier = 0.023122
Gmin = 235.662
vernier = 0.0308293
vernier = 0.0411057
vernier = 0.0205529
Gmin = 222.615
vernier = 0.0274038
Gmin = 209.344
vernier = 0.0365384
vernier = 0.0182692
vernier = 0.0243589
Gmin = 200.934
vernier = 0.0324786
vernier = 0.0162393
Gmin = 193.351
vernier = 0.0216524
vernier = 0.0288698
vernier = 0.0144349
Gmin = 185.845
vernier = 0.0192465
vernier = 0.025662
Gmin = 177.489
vernier = 0.012831
vernier = 0.017108
Gmin = 172.815
vernier = 0.0228107
vernier = 0.0114053
vernier = 0.0152071
Gmin = 168.284
vernier = 0.0202762
vernier = 0.0101381
Gmin = 163.872
vernier = 0.0135174
vernier = 0.0180232
vernier = 0.00901162
Gmin = 159.777
vernier = 0.0120155
Gmin = 155.638
vernier = 0.0160207
vernier = 0.0213609
vernier = 0.0106804
Gmin = 151.091
vernier = 0.0142406
Gmin = 146.334
vernier = 0.0189874
vernier = 0.00949371
vernier = 0.0126583
Gmin = 143.246
vernier = 0.0168777
vernier = 0.00843885
Gmin = 140.407
vernier = 0.0112518
vernier = 0.0150024
vernier = 0.0075012
Gmin = 137.544
vernier = 0.0100016
vernier = 0.0133355
Gmin = 134.292
vernier = 0.00666773
vernier = 0.0088903
Gmin = 132.44
vernier = 0.0118537
vernier = 0.00592687
Gmin = 130.109
vernier = 0.00790249
vernier = 0.0105366
Gmin = 127.525
vernier = 0.0140489
vernier = 0.00702443
Gmin = 125.307
vernier = 0.0093659
vernier = 0.0124879
vernier = 0.00624394
Gmin = 123.152
vernier = 0.00832524
Gmin = 120.869
vernier = 0.0111003
vernier = 0.00555016
vernier = 0.00740021
Gmin = 119.37
vernier = 0.00986695
vernier = 0.00493347
Gmin = 117.981
vernier = 0.00657796
vernier = 0.00877062
Gmin = 115.804
vernier = 0.0116942
vernier = 0.00584708
vernier = 0.0077961
Gmin = 114.236
vernier = 0.0103948
vernier = 0.0051974
Gmin = 112.69
vernier = 0.00692986
vernier = 0.00923982
vernier = 0.00461991
Gmin = 111.236
vernier = 0.00615988
Gmin = 109.748
vernier = 0.00821317
vernier = 0.00410658
Gmin = 108.35
vernier = 0.00547544
vernier = 0.00730059
Gmin = 106.854
vernier = 0.00973411
vernier = 0.00486706
Gmin = 105.563
vernier = 0.00648941
vernier = 0.00865254
vernier = 0.00432627
Gmin = 104.301
vernier = 0.00576836
Gmin = 102.957
vernier = 0.00769114
vernier = 0.00384557
vernier = 0.00512743
Gmin = 102.07
vernier = 0.00683657
vernier = 0.00911542
Gmin = 100.414
vernier = 0.00455771
vernier = 0.00607695
Gmin = 99.4652
vernier = 0.00810259
vernier = 0.0040513
vernier = 0.00540173
Gmin = 98.5299
vernier = 0.0072023
vernier = 0.00360115
Gmin = 97.6035
vernier = 0.00480153
vernier = 0.00640204
Gmin = 96.4203
vernier = 0.00320102
Gmin = 95.5758
vernier = 0.00426803
vernier = 0.0056907
Gmin = 94.4277
vernier = 0.0075876
vernier = 0.0037938
vernier = 0.0050584
Gmin = 93.596
vernier = 0.00674453
vernier = 0.00337227
Gmin = 92.7716
vernier = 0.00449635
vernier = 0.00599514
vernier = 0.00299757
Gmin = 91.9931
vernier = 0.00399676
Gmin = 91.1927
vernier = 0.00532901
vernier = 0.00710534
vernier = 0.00355267
Gmin = 90.2966
vernier = 0.00473689
Gmin = 89.3399
vernier = 0.00631586
vernier = 0.00315793
vernier = 0.00421057
Gmin = 88.7076
vernier = 0.00561409
vernier = 0.00280705
Gmin = 88.1185
vernier = 0.00374273
vernier = 0.0049903
Gmin = 87.1895
vernier = 0.00665373
vernier = 0.00332687
vernier = 0.00443582
Gmin = 86.5156
vernier = 0.00591443
vernier = 0.00295721
Gmin = 85.8469
vernier = 0.00394295
vernier = 0.00525726
vernier = 0.00262863
Gmin = 85.2149
vernier = 0.00350484
Gmin = 84.5643
vernier = 0.00467312
vernier = 0.00623083
vernier = 0.00311541
Gmin = 83.8352
vernier = 0.00415388
Gmin = 83.0556
vernier = 0.00553851
vernier = 0.00276926
vernier = 0.00369234
Gmin = 82.5399
vernier = 0.00492312
vernier = 0.00246156
Gmin = 82.059
vernier = 0.00328208
vernier = 0.0043761
Gmin = 81.2998
vernier = 0.0058348
vernier = 0.0029174
vernier = 0.00388987
Gmin = 80.7485
vernier = 0.00518649
vernier = 0.00259324
Gmin = 80.2009
vernier = 0.00345766
vernier = 0.00461021
vernier = 0.0023051
Gmin = 79.6829
vernier = 0.00307347
Gmin = 79.1491
vernier = 0.00409796
vernier = 0.00546395
vernier = 0.00273197
Gmin = 78.5503
vernier = 0.00364263
Gmin = 77.9094
vernier = 0.00485684
vernier = 0.00242842
vernier = 0.00323789
Gmin = 77.485
vernier = 0.00431719
vernier = 0.00215859
Gmin = 77.0889
vernier = 0.00287813
vernier = 0.0038375
Gmin = 76.4631
vernier = 0.00511666
vernier = 0.00255833
vernier = 0.00341111
Gmin = 76.0082
vernier = 0.00454814
vernier = 0.00227407
Gmin = 75.556
vernier = 0.0030321
vernier = 0.00404279
vernier = 0.0020214
Gmin = 75.1278
vernier = 0.00269519
Gmin = 74.6863
vernier = 0.00359359
vernier = 0.00479145
vernier = 0.00239573
Gmin = 74.1905
vernier = 0.0031943
Gmin = 73.6594
vernier = 0.00425907
vernier = 0.00212953
vernier = 0.00283938
Gmin = 73.3074
vernier = 0.00378584
vernier = 0.00189292
Gmin = 72.9787
vernier = 0.00252389
vernier = 0.00336519
Gmin = 72.4589
vernier = 0.00448691
vernier = 0.00224346
vernier = 0.00299128
Gmin = 72.0807
vernier = 0.00398837
vernier = 0.00199418
Gmin = 71.7045
vernier = 0.00265891
vernier = 0.00354521
vernier = 0.00177261
Gmin = 71.348
vernier = 0.00236347
Gmin = 70.9802
vernier = 0.0031513
vernier = 0.00420173
vernier = 0.00210087
Gmin = 70.5668
vernier = 0.00280115
Gmin = 70.1236
vernier = 0.00373487
vernier = 0.00186743
vernier = 0.00248991
Gmin = 69.8296
vernier = 0.00331988
vernier = 0.00442651
Gmin = 69.2767
vernier = 0.00221325
vernier = 0.00295101
Gmin = 68.958
vernier = 0.00393467
vernier = 0.00196734
vernier = 0.00262311
Gmin = 68.6423
vernier = 0.00349749
vernier = 0.00174874
Gmin = 68.328
vernier = 0.00233166
vernier = 0.00310887
Gmin = 67.9244
vernier = 0.00414516
vernier = 0.00207258
Gmin = 67.5735
vernier = 0.00276344
vernier = 0.00368459
vernier = 0.00184229
Gmin = 67.2283
vernier = 0.00245639
Gmin = 66.8578
vernier = 0.00327519
vernier = 0.00163759
vernier = 0.00218346
Gmin = 66.612
vernier = 0.00291128
vernier = 0.0038817
Gmin = 66.1492
vernier = 0.00194085
vernier = 0.0025878
Gmin = 65.8823
vernier = 0.0034504
vernier = 0.0017252
vernier = 0.00230027
Gmin = 65.6177
vernier = 0.00306702
vernier = 0.00153351
Gmin = 65.3541
vernier = 0.00204468
vernier = 0.00272624
Gmin = 65.0155
vernier = 0.00363498
vernier = 0.00181749
Gmin = 64.7208
vernier = 0.00242332
vernier = 0.0032311
vernier = 0.00161555
Gmin = 64.4308
vernier = 0.00215406
Gmin = 64.1193
vernier = 0.00287208
vernier = 0.00143604
vernier = 0.00191472
Gmin = 63.9125
vernier = 0.00255296
vernier = 0.00340395
Gmin = 63.5229
vernier = 0.00170197
vernier = 0.0022693
Gmin = 63.2981
vernier = 0.00302573
vernier = 0.00151287
vernier = 0.00201715
Gmin = 63.0751
vernier = 0.00268954
Gmin = 62.7052
vernier = 0.00358605
vernier = 0.00179302
vernier = 0.0023907
Gmin = 62.4482
vernier = 0.0031876
vernier = 0.0015938
Gmin = 62.1999
vernier = 0.00212506
vernier = 0.00283342
vernier = 0.00141671
Gmin = 61.9554
vernier = 0.00188894
Gmin = 61.6927
vernier = 0.00251859
vernier = 0.00335812
vernier = 0.00167906
Gmin = 61.4085
vernier = 0.00223875
vernier = 0.002985
Gmin = 61.0801
vernier = 0.0014925
vernier = 0.00199
Gmin = 60.8905
vernier = 0.00265333
vernier = 0.00132666
vernier = 0.00176889
Gmin = 60.7024
vernier = 0.00235851
Gmin = 60.3901
vernier = 0.00314468
vernier = 0.00157234
vernier = 0.00209646
Gmin = 60.1729
vernier = 0.00279527
vernier = 0.00139764
Gmin = 59.9631
vernier = 0.00186351
vernier = 0.00248469
vernier = 0.00124234
Gmin = 59.7563
vernier = 0.00165646
Gmin = 59.5341
vernier = 0.00220861
vernier = 0.00294481
vernier = 0.00147241
Gmin = 59.2935
vernier = 0.00196321
vernier = 0.00261761
Gmin = 59.0154
vernier = 0.0013088
vernier = 0.00174507
Gmin = 58.8547
vernier = 0.00232676
vernier = 0.00310235
vernier = 0.00155117
Gmin = 58.5986
vernier = 0.00206823
Gmin = 58.3341
vernier = 0.00275764
vernier = 0.00137882
vernier = 0.00183843
Gmin = 58.1501
vernier = 0.00245124
vernier = 0.00122562
Gmin = 57.9723
vernier = 0.00163416
vernier = 0.00217887
Gmin = 57.7183
vernier = 0.00290517
vernier = 0.00145258
Gmin = 57.5195
vernier = 0.00193678
vernier = 0.00258237
vernier = 0.00129118
Gmin = 57.3157
vernier = 0.00172158
vernier = 0.00229544
Gmin = 57.0798
vernier = 0.00114772
vernier = 0.00153029
Gmin = 56.9435
vernier = 0.00204039
vernier = 0.00272052
vernier = 0.00136026
Gmin = 56.7262
vernier = 0.00181368
Gmin = 56.5016
vernier = 0.00241824
vernier = 0.00120912
vernier = 0.00161216
Gmin = 56.3453
vernier = 0.00214954
Gmin = 56.0735
vernier = 0.00286605
vernier = 0.00143303
vernier = 0.0019107
Gmin = 55.893
vernier = 0.0025476
vernier = 0.0012738
Gmin = 55.7242
vernier = 0.0016984
vernier = 0.00226453
vernier = 0.00113227
Gmin = 55.551
vernier = 0.00150969
vernier = 0.00201292
Gmin = 55.3505
vernier = 0.00268389
vernier = 0.00134195
Gmin = 55.1559
vernier = 0.00178926
vernier = 0.00238568
vernier = 0.00119284
Gmin = 54.9712
vernier = 0.00159045
Gmin = 54.7803
vernier = 0.0021206
vernier = 0.0010603
vernier = 0.00141374
Gmin = 54.6474
vernier = 0.00188498
Gmin = 54.4162
vernier = 0.00251331
vernier = 0.00125665
vernier = 0.00167554
Gmin = 54.2625
vernier = 0.00223405
vernier = 0.00111702
Gmin = 54.1188
vernier = 0.00148937
vernier = 0.00198582
Gmin = 53.891
vernier = 0.00264776
vernier = 0.00132388
vernier = 0.00176517
Gmin = 53.7248
vernier = 0.00235356
vernier = 0.00117678
Gmin = 53.5591
vernier = 0.00156904
vernier = 0.00209205
vernier = 0.00104603
Gmin = 53.4018
vernier = 0.0013947
Gmin = 53.2391
vernier = 0.0018596
vernier = 0.00247947
vernier = 0.00123974
Gmin = 53.0559
vernier = 0.00165298
Gmin = 52.859
vernier = 0.00220397
vernier = 0.00110199
vernier = 0.00146931
Gmin = 52.7281
vernier = 0.00195909
vernier = 0.000979543
Gmin = 52.6056
vernier = 0.00130606
vernier = 0.00174141
Gmin = 52.4114
vernier = 0.00232188
vernier = 0.00116094
vernier = 0.00154792
Gmin = 52.2696
vernier = 0.00206389
vernier = 0.00103194
Gmin = 52.1282
vernier = 0.00137593
vernier = 0.00183457
Gmin = 51.9463
vernier = 0.00244609
vernier = 0.00122304
Gmin = 51.7877
vernier = 0.00163073
vernier = 0.0021743
vernier = 0.00108715
Gmin = 51.6314
vernier = 0.00144953
Gmin = 51.4633
vernier = 0.00193271
vernier = 0.000966356
vernier = 0.00128847
Gmin = 51.3515
vernier = 0.00171796
vernier = 0.00229062
Gmin = 51.1407
vernier = 0.00114531
vernier = 0.00152708
Gmin = 51.0188
vernier = 0.0020361
vernier = 0.00101805
vernier = 0.0013574
Gmin = 50.8978
vernier = 0.00180987
vernier = 0.000904935
Gmin = 50.777
vernier = 0.00120658
vernier = 0.00160877
Gmin = 50.6216
vernier = 0.00214503
vernier = 0.00107251
Gmin = 50.486
vernier = 0.00143002
vernier = 0.00190669
vernier = 0.000953346
Gmin = 50.3524
vernier = 0.00127113
Gmin = 50.2086
vernier = 0.00169484
vernier = 0.00225978
vernier = 0.00112989
Gmin = 50.0529
vernier = 0.00150652
vernier = 0.00200869
Gmin = 49.8726
vernier = 0.00100435
vernier = 0.00133913
Gmin = 49.7683
vernier = 0.0017855
vernier = 0.000892752
vernier = 0.00119034
Gmin = 49.6648
vernier = 0.00158711
Gmin = 49.4927
vernier = 0.00211615
vernier = 0.00105808
vernier = 0.00141077
Gmin = 49.3728
vernier = 0.00188102
vernier = 0.000940511
Gmin = 49.2569
vernier = 0.00125401
vernier = 0.00167202
Gmin = 49.0912
vernier = 0.00083601
vernier = 0.00111468
Gmin = 48.9921
vernier = 0.00148624
Gmin = 48.8286
vernier = 0.00198165
vernier = 0.000990826
vernier = 0.0013211
Gmin = 48.7199
vernier = 0.00176147
vernier = 0.000880733
Gmin = 48.6181
vernier = 0.00117431
vernier = 0.00156575
Gmin = 48.4566
vernier = 0.00208766
vernier = 0.00104383
vernier = 0.00139177
Gmin = 48.3388
vernier = 0.0018557
vernier = 0.00092785
Gmin = 48.2212
vernier = 0.00123713
vernier = 0.00164951
vernier = 0.000824755
Gmin = 48.1095
vernier = 0.00109967
Gmin = 47.9939
vernier = 0.00146623
vernier = 0.00195497
vernier = 0.000977487
Gmin = 47.8636
vernier = 0.00130332
Gmin = 47.7235
vernier = 0.00173775
vernier = 0.000868876
vernier = 0.0011585
Gmin = 47.6303
vernier = 0.00154467
vernier = 0.00205956
Gmin = 47.4544
vernier = 0.00102978
vernier = 0.00137304
Gmin = 47.3527
vernier = 0.00183072
vernier = 0.000915358
vernier = 0.00122048
Gmin = 47.2517
vernier = 0.0016273
vernier = 0.000813652
Gmin = 47.1509
vernier = 0.00108487
vernier = 0.00144649
Gmin = 47.0211
vernier = 0.00192865
vernier = 0.000964327
Gmin = 46.9079
vernier = 0.00128577
vernier = 0.00171436
vernier = 0.000857179
Gmin = 46.7962
vernier = 0.00114291
Gmin = 46.676
vernier = 0.00152387
vernier = 0.000761937
vernier = 0.00101592
Gmin = 46.5961
vernier = 0.00135455
vernier = 0.00180607
Gmin = 46.4451
vernier = 0.000903035
vernier = 0.00120405
Gmin = 46.3579
vernier = 0.0016054
vernier = 0.000802698
vernier = 0.00107026
Gmin = 46.2711
vernier = 0.00142702
Gmin = 46.1269
vernier = 0.00190269
vernier = 0.000951345
vernier = 0.00126846
Gmin = 46.0265
vernier = 0.00169128
vernier = 0.000845639
Gmin = 45.9293
vernier = 0.00112752
vernier = 0.00150336
vernier = 0.000751679
Gmin = 45.8334
vernier = 0.00100224
Gmin = 45.7302
vernier = 0.00133632
vernier = 0.00178176
vernier = 0.000890878
Gmin = 45.6183
vernier = 0.00118784
vernier = 0.00158378
Gmin = 45.4887
vernier = 0.000791891
vernier = 0.00105585
Gmin = 45.4137
vernier = 0.00140781
vernier = 0.00187707
vernier = 0.000938537
Gmin = 45.294
vernier = 0.00125138
Gmin = 45.1702
vernier = 0.00166851
vernier = 0.000834255
vernier = 0.00111234
Gmin = 45.0839
vernier = 0.00148312
vernier = 0.000741559
Gmin = 45.0004
vernier = 0.000988746
vernier = 0.00131833
Gmin = 44.881
vernier = 0.00175777
vernier = 0.000878885
Gmin = 44.7875
vernier = 0.00117185
vernier = 0.00156246
vernier = 0.00078123
Gmin = 44.6914
vernier = 0.00104164
vernier = 0.00138885
Gmin = 44.58
vernier = 0.000694427
vernier = 0.000925902
Gmin = 44.5155
vernier = 0.00123454
vernier = 0.00164605
vernier = 0.000823024
Gmin = 44.4126
vernier = 0.00109736
Gmin = 44.3062
vernier = 0.00146315
vernier = 0.000731576
vernier = 0.000975435
Gmin = 44.2319
vernier = 0.00130058
Gmin = 44.1027
vernier = 0.00173411
vernier = 0.000867053
vernier = 0.00115607
Gmin = 44.0168
vernier = 0.00154143
vernier = 0.000770713
Gmin = 43.9363
vernier = 0.00102762
vernier = 0.00137016
vernier = 0.000685078
Gmin = 43.8536
vernier = 0.000913437
vernier = 0.00121792
Gmin = 43.7577
vernier = 0.00162389
vernier = 0.000811944
Gmin = 43.6646
vernier = 0.00108259
vernier = 0.00144345
vernier = 0.000721727
Gmin = 43.5761
vernier = 0.000962303
Gmin = 43.4844
vernier = 0.00128307
vernier = 0.00171076
vernier = 0.00085538
Gmin = 43.3811
vernier = 0.00114051
Gmin = 43.27
vernier = 0.00152067
vernier = 0.000760337
vernier = 0.00101378
Gmin = 43.196
vernier = 0.00135171
vernier = 0.000675855
Gmin = 43.1267
vernier = 0.00090114
vernier = 0.00120152
Gmin = 43.0168
vernier = 0.00160203
vernier = 0.000801013
vernier = 0.00106802
Gmin = 42.9365
vernier = 0.00142402
vernier = 0.000712011
Gmin = 42.8563
vernier = 0.000949348
vernier = 0.0012658
Gmin = 42.753
vernier = 0.00168773
vernier = 0.000843864
Gmin = 42.6629
vernier = 0.00112515
vernier = 0.0015002
vernier = 0.000750101
Gmin = 42.574
vernier = 0.00100013
Gmin = 42.4784
vernier = 0.00133351
vernier = 0.000666756
vernier = 0.000889008
Gmin = 42.4147
vernier = 0.00118534
vernier = 0.00158046
Gmin = 42.2944
vernier = 0.000790229
vernier = 0.00105364
Gmin = 42.2249
vernier = 0.00140485
vernier = 0.000702425
vernier = 0.000936567
Gmin = 42.1557
vernier = 0.00124876
vernier = 0.000624378
Gmin = 42.0867
vernier = 0.000832504
vernier = 0.00111
Gmin = 41.9977
vernier = 0.00148001
vernier = 0.000740003
Gmin = 41.9201
vernier = 0.00098667
vernier = 0.00131556
vernier = 0.00065778
Gmin = 41.8435
vernier = 0.00087704
Gmin = 41.761
vernier = 0.00116939
vernier = 0.00155918
vernier = 0.00077959
Gmin = 41.6716
vernier = 0.00103945
vernier = 0.00138594
Gmin = 41.568
vernier = 0.000692969
vernier = 0.000923958
Gmin = 41.508
vernier = 0.00123194
vernier = 0.000615972
vernier = 0.000821296
Gmin = 41.4484
vernier = 0.00109506
Gmin = 41.3492
vernier = 0.00146008
vernier = 0.00073004
vernier = 0.000973387
Gmin = 41.2801
vernier = 0.00129785
vernier = 0.000648924
Gmin = 41.2132
vernier = 0.000865232
vernier = 0.00115364
Gmin = 41.1175
vernier = 0.00153819
vernier = 0.000769095
Gmin = 41.0425
vernier = 0.00102546
vernier = 0.00136728
vernier = 0.00068364
Gmin = 40.9654
vernier = 0.000911519
vernier = 0.00121536
Gmin = 40.876
vernier = 0.000607679
vernier = 0.000810239
Gmin = 40.8243
vernier = 0.00108032
vernier = 0.00144042
vernier = 0.000720212
Gmin = 40.7417
vernier = 0.000960283
Gmin = 40.6563
vernier = 0.00128038
vernier = 0.000640188
vernier = 0.000853584
Gmin = 40.5967
vernier = 0.00113811
Gmin = 40.4928
vernier = 0.00151748
vernier = 0.000758741
vernier = 0.00101165
Gmin = 40.4238
vernier = 0.00134887
vernier = 0.000674436
Gmin = 40.3591
vernier = 0.000899248
vernier = 0.001199
vernier = 0.000599499
Gmin = 40.2926
vernier = 0.000799331
vernier = 0.00106577
Gmin = 40.2155
vernier = 0.00142103
vernier = 0.000710516
Gmin = 40.1406
vernier = 0.000947355
vernier = 0.00126314
vernier = 0.00063157
Gmin = 40.0694
vernier = 0.000842093
Gmin = 39.9956
vernier = 0.00112279
vernier = 0.000561395
vernier = 0.000748526
Gmin = 39.9442
vernier = 0.000998035
Gmin = 39.8546
vernier = 0.00133071
vernier = 0.000665357
vernier = 0.000887142
Gmin = 39.795
vernier = 0.00118286
vernier = 0.000591428
Gmin = 39.7392
vernier = 0.00078857
vernier = 0.00105143
Gmin = 39.6505
vernier = 0.0014019
vernier = 0.000700951
vernier = 0.000934601
Gmin = 39.5857
vernier = 0.00124613
vernier = 0.000623067
Gmin = 39.521
vernier = 0.000830756
vernier = 0.00110767
vernier = 0.000553837
Gmin = 39.4595
vernier = 0.000738449
Gmin = 39.3958
vernier = 0.000984599
vernier = 0.0013128
vernier = 0.000656399
Gmin = 39.324
vernier = 0.000875199
Gmin = 39.2466
vernier = 0.00116693
vernier = 0.000583466
vernier = 0.000777954
Gmin = 39.1951
vernier = 0.00103727
vernier = 0.00138303
Gmin = 39.0979
vernier = 0.000691514
vernier = 0.000922019
Gmin = 39.0416
vernier = 0.00122936
vernier = 0.000614679
vernier = 0.000819572
Gmin = 38.9856
vernier = 0.00109276
vernier = 0.000546381
Gmin = 38.9298
vernier = 0.000728508
vernier = 0.000971344
Gmin = 38.8578
vernier = 0.00129512
vernier = 0.000647562
Gmin = 38.7949
vernier = 0.000863416
vernier = 0.00115122
vernier = 0.000575611
Gmin = 38.7329
vernier = 0.000767481
Gmin = 38.666
vernier = 0.00102331
vernier = 0.00136441
vernier = 0.000682205
Gmin = 38.5936
vernier = 0.000909606
vernier = 0.00121281
Gmin = 38.5096
vernier = 0.000606404
vernier = 0.000808538
Gmin = 38.4609
vernier = 0.00107805
vernier = 0.000539025
vernier = 0.0007187
Gmin = 38.4126
vernier = 0.000958267
Gmin = 38.3322
vernier = 0.00127769
vernier = 0.000638844
vernier = 0.000851792
Gmin = 38.2761
vernier = 0.00113572
vernier = 0.000567861
Gmin = 38.2218
vernier = 0.000757148
vernier = 0.00100953
Gmin = 38.1441
vernier = 0.000504765
vernier = 0.00067302
Gmin = 38.0976
vernier = 0.00089736
Gmin = 38.0208
vernier = 0.00119648
vernier = 0.00059824
vernier = 0.000797653
Gmin = 37.9697
vernier = 0.00106354
vernier = 0.000531769
Gmin = 37.9217
vernier = 0.000709025
vernier = 0.000945366
Gmin = 37.8456
vernier = 0.00126049
vernier = 0.000630244
vernier = 0.000840325
Gmin = 37.79
vernier = 0.00112043
vernier = 0.000560217
Gmin = 37.7345
vernier = 0.000746955
vernier = 0.00099594
vernier = 0.00049797
Gmin = 37.6817
vernier = 0.00066396
Gmin = 37.627
vernier = 0.00088528
vernier = 0.00118037
vernier = 0.000590186
Gmin = 37.5653
vernier = 0.000786915
Gmin = 37.4989
vernier = 0.00104922
vernier = 0.00052461
vernier = 0.000699479
Gmin = 37.4546
vernier = 0.000932639
vernier = 0.00124352
Gmin = 37.371
vernier = 0.000621759
vernier = 0.000829012
Gmin = 37.3227
vernier = 0.00110535
vernier = 0.000552675
vernier = 0.000736899
Gmin = 37.2746
vernier = 0.000982532
vernier = 0.000491266
Gmin = 37.2265
vernier = 0.000655021
vernier = 0.000873361
Gmin = 37.1646
vernier = 0.00116448
vernier = 0.000582241
Gmin = 37.1106
vernier = 0.000776321
vernier = 0.00103509
vernier = 0.000517547
Gmin = 37.0572
vernier = 0.000690063
Gmin = 36.9997
vernier = 0.000920083
vernier = 0.00122678
vernier = 0.000613389
Gmin = 36.9373
vernier = 0.000817851
vernier = 0.00109047
Gmin = 36.865
vernier = 0.000545234
vernier = 0.000726979
Gmin = 36.8232
vernier = 0.000969305
vernier = 0.000484652
vernier = 0.000646203
Gmin = 36.7816
vernier = 0.000861604
Gmin = 36.7123
vernier = 0.0011488
vernier = 0.000574402
vernier = 0.00076587
Gmin = 36.664
vernier = 0.00102116
vernier = 0.00051058
Gmin = 36.6173
vernier = 0.000680773
vernier = 0.000907697
Gmin = 36.5504
vernier = 0.00121026
vernier = 0.000605131
Gmin = 36.4979
vernier = 0.000806841
vernier = 0.00107579
vernier = 0.000537894
Gmin = 36.4439
vernier = 0.000717192
vernier = 0.000956255
Gmin = 36.3814
vernier = 0.000478128
vernier = 0.000637503
Gmin = 36.3451
vernier = 0.000850004
vernier = 0.00113334
vernier = 0.000566669
Gmin = 36.2873
vernier = 0.000755559
Gmin = 36.2273
vernier = 0.00100741
vernier = 0.000503706
vernier = 0.000671608
Gmin = 36.1856
vernier = 0.000895477
Gmin = 36.1127
vernier = 0.00119397
vernier = 0.000596984
vernier = 0.000795979
Gmin = 36.0643
vernier = 0.0010613
vernier = 0.000530652
Gmin = 36.0188
vernier = 0.000707536
vernier = 0.000943382
vernier = 0.000471691
Gmin = 35.9722
vernier = 0.000628921
vernier = 0.000838561
Gmin = 35.918
vernier = 0.00111808
vernier = 0.000559041
Gmin = 35.8653
vernier = 0.000745387
vernier = 0.000993849
vernier = 0.000496925
Gmin = 35.8152
vernier = 0.000662566
Gmin = 35.7634
vernier = 0.000883421
vernier = 0.00117789
vernier = 0.000588947
Gmin = 35.7048
vernier = 0.000785263
Gmin = 35.6418
vernier = 0.00104702
vernier = 0.000523508
vernier = 0.000698011
Gmin = 35.5999
vernier = 0.000930681
vernier = 0.000465341
Gmin = 35.5605
vernier = 0.000620454
vernier = 0.000827272
Gmin = 35.4981
vernier = 0.00110303
vernier = 0.000551514
vernier = 0.000735352
Gmin = 35.4524
vernier = 0.00098047
vernier = 0.000490235
Gmin = 35.4069
vernier = 0.000653646
vernier = 0.000871528
vernier = 0.000435764
Gmin = 35.3635
vernier = 0.000581019
Gmin = 35.3186
vernier = 0.000774691
vernier = 0.00103292
vernier = 0.000516461
Gmin = 35.2679
vernier = 0.000688614
Gmin = 35.2133
vernier = 0.000918152
vernier = 0.000459076
vernier = 0.000612101
Gmin = 35.1769
vernier = 0.000816135
vernier = 0.00108818
Gmin = 35.1082
vernier = 0.00054409
vernier = 0.000725453
Gmin = 35.0685
vernier = 0.00096727
vernier = 0.000483635
vernier = 0.000644846
Gmin = 35.0289
vernier = 0.000859795
vernier = 0.000429898
Gmin = 34.9894
vernier = 0.000573197
vernier = 0.000764262
Gmin = 34.9385
vernier = 0.00101902
vernier = 0.000509508
Gmin = 34.894
vernier = 0.000679344
vernier = 0.000905791
vernier = 0.000452896
Gmin = 34.8501
vernier = 0.000603861
Gmin = 34.8028
vernier = 0.000805147
vernier = 0.00107353
vernier = 0.000536765
Gmin = 34.7514
vernier = 0.000715686
vernier = 0.000954248
Gmin = 34.6919
vernier = 0.000477124
vernier = 0.000636165
Gmin = 34.6574
vernier = 0.00084822
vernier = 0.00042411
vernier = 0.00056548
Gmin = 34.6232
vernier = 0.000753973
Gmin = 34.5661
vernier = 0.0010053
vernier = 0.000502648
vernier = 0.000670198
Gmin = 34.5263
vernier = 0.000893597
vernier = 0.000446798
Gmin = 34.4878
vernier = 0.000595731
vernier = 0.000794308
Gmin = 34.4326
vernier = 0.00105908
vernier = 0.000529538
Gmin = 34.3893
vernier = 0.000706051
vernier = 0.000941401
vernier = 0.000470701
Gmin = 34.3449
vernier = 0.000627601
vernier = 0.000836801
Gmin = 34.2933
vernier = 0.0004184
vernier = 0.000557867
Gmin = 34.2634
vernier = 0.000743823
vernier = 0.000991763
vernier = 0.000495882
Gmin = 34.2156
vernier = 0.000661175
Gmin = 34.1662
vernier = 0.000881567
vernier = 0.000440783
vernier = 0.000587711
Gmin = 34.1317
vernier = 0.000783615
Gmin = 34.0716
vernier = 0.00104482
vernier = 0.00052241
vernier = 0.000696546
Gmin = 34.0315
vernier = 0.000928728
vernier = 0.000464364
Gmin = 33.994
vernier = 0.000619152
vernier = 0.000825535
vernier = 0.000412768
Gmin = 33.9555
vernier = 0.000550357
vernier = 0.000733809
Gmin = 33.9107
vernier = 0.000978411
vernier = 0.000489206
Gmin = 33.8672
vernier = 0.000652274
vernier = 0.000869699
vernier = 0.000434849
Gmin = 33.8258
vernier = 0.000579799
Gmin = 33.783
vernier = 0.000773065
vernier = 0.00103075
vernier = 0.000515377
Gmin = 33.7346
vernier = 0.000687169
Gmin = 33.6825
vernier = 0.000916225
vernier = 0.000458112
vernier = 0.000610816
Gmin = 33.6478
vernier = 0.000814421
vernier = 0.000407211
Gmin = 33.6152
vernier = 0.000542947
vernier = 0.00072393
Gmin = 33.5636
vernier = 0.000965239
vernier = 0.00048262
vernier = 0.000643493
Gmin = 33.5258
vernier = 0.00085799
vernier = 0.000428995
Gmin = 33.4881
vernier = 0.000571993
vernier = 0.000762658
Gmin = 33.4394
vernier = 0.00101688
vernier = 0.000508438
Gmin = 33.3969
vernier = 0.000677917
vernier = 0.00090389
vernier = 0.000451945
Gmin = 33.355
vernier = 0.000602593
Gmin = 33.3098
vernier = 0.000803457
vernier = 0.000401729
vernier = 0.000535638
Gmin = 33.2797
vernier = 0.000714184
vernier = 0.000952245
Gmin = 33.2228
vernier = 0.000476122
vernier = 0.00063483
Gmin = 33.1899
vernier = 0.000846439
vernier = 0.00042322
vernier = 0.000564293
Gmin = 33.1571
vernier = 0.00075239
Gmin = 33.1026
vernier = 0.00100319
vernier = 0.000501593
vernier = 0.000668791
Gmin = 33.0646
vernier = 0.000891721
vernier = 0.000445861
Gmin = 33.0278
vernier = 0.000594481
vernier = 0.000792641
vernier = 0.00059448
Gmin = 32.9897
vernier = 0.00079264
vernier = 0.00059448
Gmin = 32.9505
vernier = 0.00079264
vernier = 0.00059448
vernier = 0.00079264
vernier = 0.00059448
Gmin = 32.9212
vernier = 0.00079264
vernier = 0.00059448
Gmin = 32.8821
vernier = 0.00079264
vernier = 0.00059448
vernier = 0.000792639
Gmin = 32.8414
vernier = 0.00059448
vernier = 0.000792639
vernier = 0.000594479
Gmin = 32.8137
vernier = 0.000792639
vernier = 0.000594479
Gmin = 32.7747
vernier = 0.000792639
vernier = 0.000594479
vernier = 0.000792639
vernier = 0.000594479
Gmin = 32.7455
vernier = 0.000792638
vernier = 0.000594479
Gmin = 32.7066
vernier = 0.000792638
vernier = 0.000594479
vernier = 0.000792638
vernier = 0.000594478
Gmin = 32.6775
vernier = 0.000792638
vernier = 0.000594478
Gmin = 32.6386
vernier = 0.000792638
vernier = 0.000594478
vernier = 0.000792637
Gmin = 32.5982
vernier = 0.000594478
vernier = 0.000792637
vernier = 0.000594478
Gmin = 32.5708
vernier = 0.000792637
vernier = 0.000594478
Gmin = 32.5321
vernier = 0.000792637
vernier = 0.000594478
vernier = 0.000792637
vernier = 0.000594477
Gmin = 32.5031
vernier = 0.000792636
vernier = 0.000594477
Gmin = 32.4645
vernier = 0.000792636
vernier = 0.000594477
vernier = 0.000792636
vernier = 0.000594477
Gmin = 32.4355
vernier = 0.000792636
vernier = 0.000594477
Gmin = 32.397
vernier = 0.000792636
vernier = 0.000594477
vernier = 0.000792635
Gmin = 32.3569
vernier = 0.000594477
vernier = 0.000792635
vernier = 0.000594476
Gmin = 32.3297
vernier = 0.000792635
vernier = 0.000594476
Gmin = 32.2913
vernier = 0.000792635
vernier = 0.000594476
vernier = 0.000792635
vernier = 0.000594476
Gmin = 32.2625
vernier = 0.000792634
vernier = 0.000594476
Gmin = 32.2242
vernier = 0.000792634
vernier = 0.000594476
vernier = 0.000792634
vernier = 0.000594476
Gmin = 32.1954
vernier = 0.000792634
vernier = 0.000594475
Gmin = 32.1572
vernier = 0.000792634
vernier = 0.000594475
vernier = 0.000792633
Gmin = 32.1174
vernier = 0.000594475
vernier = 0.000792633
vernier = 0.000594475
Gmin = 32.0903
vernier = 0.000792633
vernier = 0.000594475
Gmin = 32.0522
vernier = 0.000792633
vernier = 0.000594475
vernier = 0.000792633
vernier = 0.000594474
Gmin = 32.0237
vernier = 0.000792632
vernier = 0.000594474
Gmin = 31.9856
vernier = 0.000792632
vernier = 0.000594474
vernier = 0.000792632
vernier = 0.000594474
Gmin = 31.9571
vernier = 0.000792632
vernier = 0.000594474
Gmin = 31.9191
vernier = 0.000792632
vernier = 0.000594474
vernier = 0.000792631
Gmin = 31.8796
vernier = 0.000594474
vernier = 0.000792631
vernier = 0.000594473
Gmin = 31.8528
vernier = 0.000792631
vernier = 0.000594473
Gmin = 31.8149
vernier = 0.000792631
vernier = 0.000594473
vernier = 0.000792631
vernier = 0.000594473
Gmin = 31.7866
vernier = 0.00079263
vernier = 0.000594473
Gmin = 31.7488
vernier = 0.00079263
vernier = 0.000594473
vernier = 0.00079263
vernier = 0.000594473
Gmin = 31.7205
vernier = 0.00079263
vernier = 0.000594472
Gmin = 31.6828
vernier = 0.00079263
vernier = 0.000594472
vernier = 0.000792629
Gmin = 31.6436
vernier = 0.000594472
vernier = 0.000792629
vernier = 0.000594472
Gmin = 31.617
vernier = 0.000792629
vernier = 0.000594472
Gmin = 31.5794
vernier = 0.000792629
vernier = 0.000594472
vernier = 0.000792629
vernier = 0.000594471
Gmin = 31.5513
vernier = 0.000792628
vernier = 0.000594471
Gmin = 31.5138
vernier = 0.000792628
vernier = 0.000594471
vernier = 0.000792628
vernier = 0.000594471
Gmin = 31.4857
vernier = 0.000792628
vernier = 0.000594471
Gmin = 31.4483
vernier = 0.000792628
vernier = 0.000594471
vernier = 0.000792627
Gmin = 31.4094
vernier = 0.000594471
vernier = 0.000792627
vernier = 0.00059447
Gmin = 31.3829
vernier = 0.000792627
vernier = 0.00059447
Gmin = 31.3456
vernier = 0.000792627
vernier = 0.00059447
vernier = 0.000792627
vernier = 0.00059447
Gmin = 31.3177
vernier = 0.000792626
vernier = 0.00059447
Gmin = 31.2805
vernier = 0.000792626
vernier = 0.00059447
vernier = 0.000792626
vernier = 0.00059447
Gmin = 31.2526
vernier = 0.000792626
vernier = 0.000594469
Gmin = 31.2155
vernier = 0.000792626
vernier = 0.000594469
vernier = 0.000792625
Gmin = 31.1769
vernier = 0.000594469
vernier = 0.000792625
vernier = 0.000594469
Gmin = 31.1506
vernier = 0.000792625
vernier = 0.000594469
Gmin = 31.1136
vernier = 0.000792625
vernier = 0.000594469
vernier = 0.000792625
vernier = 0.000594469
Gmin = 31.0859
vernier = 0.000792625
vernier = 0.000594468
Gmin = 31.0489
vernier = 0.000792624
vernier = 0.000594468
vernier = 0.000792624
vernier = 0.000594468
Gmin = 31.0213
vernier = 0.000792624
vernier = 0.000594468
Gmin = 30.9844
vernier = 0.000792624
vernier = 0.000594468
vernier = 0.000792624
Gmin = 30.9461
vernier = 0.000594468
vernier = 0.000792623
vernier = 0.000594467
Gmin = 30.92
vernier = 0.000792623
vernier = 0.000594467
Gmin = 30.8833
vernier = 0.000792623
vernier = 0.000594467
vernier = 0.000792623
vernier = 0.000594467
Gmin = 30.8557
vernier = 0.000792623
vernier = 0.000594467
Gmin = 30.8191
vernier = 0.000792622
vernier = 0.000594467
vernier = 0.000792622
vernier = 0.000594467
Gmin = 30.7916
vernier = 0.000792622
vernier = 0.000594466
Gmin = 30.755
vernier = 0.000792622
vernier = 0.000594466
vernier = 0.000792622
Gmin = 30.717
vernier = 0.000594466
vernier = 0.000792621
vernier = 0.000594466
Gmin = 30.6911
vernier = 0.000792621
vernier = 0.000594466
Gmin = 30.6547
vernier = 0.000792621
vernier = 0.000594466
vernier = 0.000792621
vernier = 0.000594466
Gmin = 30.6273
vernier = 0.000792621
vernier = 0.000594465
Gmin = 30.5909
vernier = 0.00079262
vernier = 0.000594465
vernier = 0.00079262
vernier = 0.000594465
Gmin = 30.5637
vernier = 0.00079262
vernier = 0.000594465
Gmin = 30.5274
vernier = 0.00079262
vernier = 0.000594465
vernier = 0.00079262
Gmin = 30.4896
vernier = 0.000594465
vernier = 0.000792619
vernier = 0.000594465
Gmin = 30.4639
vernier = 0.000792619
vernier = 0.000594464
Gmin = 30.4277
vernier = 0.000792619
vernier = 0.000594464
vernier = 0.000792619
vernier = 0.000594464
Gmin = 30.4006
vernier = 0.000792619
vernier = 0.000594464
Gmin = 30.3645
vernier = 0.000792618
vernier = 0.000594464
vernier = 0.000792618
vernier = 0.000594464
Gmin = 30.3374
vernier = 0.000792618
vernier = 0.000594463
Gmin = 30.3014
vernier = 0.000792618
vernier = 0.000594463
vernier = 0.000792618
Gmin = 30.2639
vernier = 0.000594463
vernier = 0.000792617
vernier = 0.000594463
Gmin = 30.2384
vernier = 0.000792617
vernier = 0.000594463
Gmin = 30.2025
vernier = 0.000792617
vernier = 0.000594463
vernier = 0.000792617
vernier = 0.000594463
Gmin = 30.1756
vernier = 0.000792617
vernier = 0.000594462
Gmin = 30.1397
vernier = 0.000792616
vernier = 0.000594462
vernier = 0.000792616
vernier = 0.000594462
Gmin = 30.1128
vernier = 0.000792616
vernier = 0.000594462
Gmin = 30.0771
vernier = 0.000792616
vernier = 0.000594462
vernier = 0.000792616
Gmin = 30.0398
vernier = 0.000594462
vernier = 0.000792615
vernier = 0.000594462
Gmin = 30.0146
vernier = 0.000792615
vernier = 0.000594461
Gmin = 29.9789
vernier = 0.000792615
vernier = 0.000594461
vernier = 0.000792615
vernier = 0.000594461
Gmin = 29.9522
vernier = 0.000792615
vernier = 0.000594461
Gmin = 29.9166
vernier = 0.000792614
vernier = 0.000594461
vernier = 0.000792614
vernier = 0.000594461
Gmin = 29.8899
vernier = 0.000792614
vernier = 0.00059446
Gmin = 29.8544
vernier = 0.000792614
vernier = 0.00059446
vernier = 0.000792614
Gmin = 29.8175
vernier = 0.00059446
vernier = 0.000792613
vernier = 0.00059446
Gmin = 29.7924
vernier = 0.000792613
vernier = 0.00059446
Gmin = 29.757
vernier = 0.000792613
vernier = 0.00059446
vernier = 0.000792613
vernier = 0.00059446
Gmin = 29.7305
vernier = 0.000792613
vernier = 0.000594459
Gmin = 29.6951
vernier = 0.000792612
vernier = 0.000594459
vernier = 0.000792612
vernier = 0.000594459
Gmin = 29.6687
vernier = 0.000792612
vernier = 0.000594459
Gmin = 29.6334
vernier = 0.000792612
vernier = 0.000594459
vernier = 0.000792612
Gmin = 29.5967
vernier = 0.000594459
vernier = 0.000792611
vernier = 0.000594459
Gmin = 29.5718
vernier = 0.000792611
vernier = 0.000594458
Gmin = 29.5367
vernier = 0.000792611
vernier = 0.000594458
vernier = 0.000792611
vernier = 0.000594458
Gmin = 29.5104
vernier = 0.000792611
vernier = 0.000594458
Gmin = 29.4753
vernier = 0.00079261
vernier = 0.000594458
vernier = 0.00079261
vernier = 0.000594458
Gmin = 29.449
vernier = 0.00079261
vernier = 0.000594458
Gmin = 29.414
vernier = 0.00079261
vernier = 0.000594457
vernier = 0.00079261
Gmin = 29.3776
vernier = 0.000594457
vernier = 0.000792609
vernier = 0.000594457
Gmin = 29.3529
vernier = 0.000792609
vernier = 0.000594457
Gmin = 29.318
vernier = 0.000792609
vernier = 0.000594457
vernier = 0.000792609
vernier = 0.000594457
Gmin = 29.2919
vernier = 0.000445842
Gmin = 29.2625
vernier = 0.000594456
vernier = 0.000445842
vernier = 0.000594456
vernier = 0.000445842
Gmin = 29.243
vernier = 0.000594456
vernier = 0.000445842
Gmin = 29.2169
vernier = 0.000594456
vernier = 0.000445842
vernier = 0.000594456
vernier = 0.000445842
Gmin = 29.1974
vernier = 0.000594456
vernier = 0.000445842
Gmin = 29.1714
vernier = 0.000594456
vernier = 0.000445842
vernier = 0.000594455
Gmin = 29.1443
vernier = 0.000445842
vernier = 0.000594455
vernier = 0.000445841
Gmin = 29.1259
vernier = 0.000594455
vernier = 0.000445841
Gmin = 29.0999
vernier = 0.000594455
vernier = 0.000445841
vernier = 0.000594455
vernier = 0.000445841
Gmin = 29.0805
vernier = 0.000594455
vernier = 0.000445841
Gmin = 29.0546
vernier = 0.000594455
vernier = 0.000445841
vernier = 0.000594454
vernier = 0.000445841
Gmin = 29.0351
vernier = 0.000594454
vernier = 0.000445841
Gmin = 29.0093
vernier = 0.000594454
vernier = 0.000445841
vernier = 0.000594454
Gmin = 28.9823
vernier = 0.00044584
vernier = 0.000594454
vernier = 0.00044584
Gmin = 28.964
vernier = 0.000594454
vernier = 0.00044584
Gmin = 28.9382
vernier = 0.000594454
vernier = 0.00044584
vernier = 0.000594453
vernier = 0.00044584
Gmin = 28.9189
vernier = 0.000594453
vernier = 0.00044584
Gmin = 28.8931
vernier = 0.000594453
vernier = 0.00044584
vernier = 0.000594453
vernier = 0.00044584
Gmin = 28.8738
vernier = 0.000594453
vernier = 0.00044584
Gmin = 28.848
vernier = 0.000594453
vernier = 0.000445839
vernier = 0.000594452
Gmin = 28.8213
vernier = 0.000445839
vernier = 0.000594452
vernier = 0.000445839
Gmin = 28.8031
vernier = 0.000594452
vernier = 0.000445839
Gmin = 28.7774
vernier = 0.000594452
vernier = 0.000445839
vernier = 0.000594452
vernier = 0.000445839
Gmin = 28.7582
vernier = 0.000594452
vernier = 0.000445839
Gmin = 28.7325
vernier = 0.000594452
vernier = 0.000445839
vernier = 0.000594451
vernier = 0.000445839
Gmin = 28.7133
vernier = 0.000594451
vernier = 0.000445838
Gmin = 28.6877
vernier = 0.000594451
vernier = 0.000445838
vernier = 0.000594451
Gmin = 28.6611
vernier = 0.000445838
vernier = 0.000594451
vernier = 0.000445838
Gmin = 28.643
vernier = 0.000594451
vernier = 0.000445838
Gmin = 28.6175
vernier = 0.000594451
vernier = 0.000445838
vernier = 0.00059445
vernier = 0.000445838
Gmin = 28.5983
vernier = 0.00059445
vernier = 0.000445838
Gmin = 28.5729
vernier = 0.00059445
vernier = 0.000445838
vernier = 0.00059445
vernier = 0.000445837
Gmin = 28.5538
vernier = 0.00059445
vernier = 0.000445837
Gmin = 28.5283
vernier = 0.00059445
vernier = 0.000445837
vernier = 0.00059445
Gmin = 28.5018
vernier = 0.000445837
vernier = 0.000594449
vernier = 0.000445837
Gmin = 28.4838
vernier = 0.000594449
vernier = 0.000445837
Gmin = 28.4584
vernier = 0.000594449
vernier = 0.000445837
vernier = 0.000594449
vernier = 0.000445837
Gmin = 28.4394
vernier = 0.000594449
vernier = 0.000445837
Gmin = 28.4141
vernier = 0.000594449
vernier = 0.000445836
vernier = 0.000594448
vernier = 0.000445836
Gmin = 28.3951
vernier = 0.000594448
vernier = 0.000445836
Gmin = 28.3698
vernier = 0.000594448
vernier = 0.000445836
vernier = 0.000594448
Gmin = 28.3434
vernier = 0.000445836
vernier = 0.000594448
vernier = 0.000445836
Gmin = 28.3255
vernier = 0.000594448
vernier = 0.000445836
Gmin = 28.3003
vernier = 0.000594448
vernier = 0.000445836
vernier = 0.000594447
vernier = 0.000445836
Gmin = 28.2814
vernier = 0.000594447
vernier = 0.000445835
Gmin = 28.2562
vernier = 0.000594447
vernier = 0.000445835
vernier = 0.000594447
vernier = 0.000445835
Gmin = 28.2373
vernier = 0.000594447
vernier = 0.000445835
Gmin = 28.2121
vernier = 0.000594447
vernier = 0.000445835
vernier = 0.000594447
Gmin = 28.1859
vernier = 0.000445835
vernier = 0.000594446
vernier = 0.000445835
Gmin = 28.1681
vernier = 0.000594446
vernier = 0.000445835
Gmin = 28.143
vernier = 0.000594446
vernier = 0.000445835
vernier = 0.000594446
vernier = 0.000445834
Gmin = 28.1242
vernier = 0.000594446
vernier = 0.000445834
Gmin = 28.0992
vernier = 0.000594446
vernier = 0.000445834
vernier = 0.000594445
vernier = 0.000445834
Gmin = 28.0804
vernier = 0.000594445
vernier = 0.000445834
Gmin = 28.0553
vernier = 0.000594445
vernier = 0.000445834
vernier = 0.000594445
Gmin = 28.0293
vernier = 0.000445834
vernier = 0.000594445
vernier = 0.000445834
Gmin = 28.0116
vernier = 0.000594445
vernier = 0.000445834
Gmin = 27.9866
vernier = 0.000594445
vernier = 0.000445833
vernier = 0.000594444
vernier = 0.000445833
Gmin = 27.9679
vernier = 0.000594444
vernier = 0.000445833
Gmin = 27.943
vernier = 0.000594444
vernier = 0.000445833
vernier = 0.000594444
vernier = 0.000445833
Gmin = 27.9243
vernier = 0.000594444
vernier = 0.000445833
Gmin = 27.8994
vernier = 0.000594444
vernier = 0.000445833
vernier = 0.000594444
Gmin = 27.8735
vernier = 0.000445833
vernier = 0.000594443
vernier = 0.000445833
Gmin = 27.8559
vernier = 0.000594443
vernier = 0.000445832
Gmin = 27.8311
vernier = 0.000594443
vernier = 0.000445832
vernier = 0.000594443
vernier = 0.000445832
Gmin = 27.8125
vernier = 0.000594443
vernier = 0.000445832
Gmin = 27.7877
vernier = 0.000594443
vernier = 0.000445832
vernier = 0.000594443
vernier = 0.000445832
Gmin = 27.7691
vernier = 0.000594442
vernier = 0.000445832
Gmin = 27.7444
vernier = 0.000594442
vernier = 0.000445832
vernier = 0.000594442
Gmin = 27.7186
vernier = 0.000445832
vernier = 0.000594442
vernier = 0.000445831
Gmin = 27.7011
vernier = 0.000594442
vernier = 0.000445831
Gmin = 27.6765
vernier = 0.000594442
vernier = 0.000445831
vernier = 0.000594441
vernier = 0.000445831
Gmin = 27.658
vernier = 0.000594441
vernier = 0.000445831
Gmin = 27.6333
vernier = 0.000594441
vernier = 0.000445831
vernier = 0.000594441
vernier = 0.000445831
Gmin = 27.6148
vernier = 0.000594441
vernier = 0.000445831
Gmin = 27.5902
vernier = 0.000594441
vernier = 0.000445831
vernier = 0.000594441
Gmin = 27.5646
vernier = 0.00044583
vernier = 0.00059444
vernier = 0.00044583
Gmin = 27.5472
vernier = 0.00059444
vernier = 0.00044583
Gmin = 27.5227
vernier = 0.00059444
vernier = 0.00044583
vernier = 0.00059444
vernier = 0.00044583
Gmin = 27.5043
vernier = 0.00059444
vernier = 0.00044583
Gmin = 27.4797
vernier = 0.00059444
vernier = 0.00044583
vernier = 0.00059444
vernier = 0.00044583
Gmin = 27.4614
vernier = 0.000594439
vernier = 0.00044583
Gmin = 27.4369
vernier = 0.000594439
vernier = 0.000445829
vernier = 0.000594439
Gmin = 27.4114
vernier = 0.000445829
vernier = 0.000594439
vernier = 0.000445829
Gmin = 27.3941
vernier = 0.000594439
vernier = 0.000445829
Gmin = 27.3697
vernier = 0.000594439
vernier = 0.000445829
vernier = 0.000594439
vernier = 0.000445829
Gmin = 27.3514
vernier = 0.000594438
vernier = 0.000445829
Gmin = 27.327
vernier = 0.000594438
vernier = 0.000445829
vernier = 0.000594438
vernier = 0.000445829
Gmin = 27.3088
vernier = 0.000594438
vernier = 0.000445828
Gmin = 27.2844
vernier = 0.000594438
vernier = 0.000445828
vernier = 0.000594438
Gmin = 27.2591
vernier = 0.000445828
vernier = 0.000594437
vernier = 0.000445828
Gmin = 27.2419
vernier = 0.000594437
vernier = 0.000445828
Gmin = 27.2176
vernier = 0.000594437
vernier = 0.000445828
vernier = 0.000594437
vernier = 0.000445828
Gmin = 27.1994
vernier = 0.000594437
vernier = 0.000445828
Gmin = 27.1752
vernier = 0.000594437
vernier = 0.000445828
vernier = 0.000594437
vernier = 0.000445827
Gmin = 27.157
vernier = 0.000594436
vernier = 0.000445827
Gmin = 27.1328
vernier = 0.000594436
vernier = 0.000445827
vernier = 0.000594436
Gmin = 27.1076
vernier = 0.000445827
vernier = 0.000594436
vernier = 0.000445827
Gmin = 27.0905
vernier = 0.000594436
vernier = 0.000445827
Gmin = 27.0664
vernier = 0.000594436
vernier = 0.000445827
vernier = 0.000594436
vernier = 0.000445827
Gmin = 27.0483
vernier = 0.000594435
vernier = 0.000445827
Gmin = 27.0242
vernier = 0.000594435
vernier = 0.000445826
vernier = 0.000594435
vernier = 0.000445826
Gmin = 27.0061
vernier = 0.000594435
vernier = 0.000445826
Gmin = 26.982
vernier = 0.000594435
vernier = 0.000445826
vernier = 0.000594435
Gmin = 26.957
vernier = 0.000445826
vernier = 0.000594434
vernier = 0.000445826
Gmin = 26.94
vernier = 0.000594434
vernier = 0.000445826
Gmin = 26.916
vernier = 0.000594434
vernier = 0.000445826
vernier = 0.000594434
vernier = 0.000445826
Gmin = 26.898
vernier = 0.000594434
vernier = 0.000445825
Gmin = 26.874
vernier = 0.000594434
vernier = 0.000445825
vernier = 0.000594434
vernier = 0.000445825
Gmin = 26.856
vernier = 0.000594433
vernier = 0.000445825
Gmin = 26.8321
vernier = 0.000594433
vernier = 0.000445825
vernier = 0.000594433
Gmin = 26.8072
vernier = 0.000445825
vernier = 0.000594433
vernier = 0.000445825
Gmin = 26.7903
vernier = 0.000594433
vernier = 0.000445825
Gmin = 26.7664
vernier = 0.000594433
vernier = 0.000445825
vernier = 0.000594433
vernier = 0.000445824
Gmin = 26.7485
vernier = 0.000594432
vernier = 0.000445824
Gmin = 26.7247
vernier = 0.000594432
vernier = 0.000445824
vernier = 0.000594432
vernier = 0.000445824
Gmin = 26.7068
vernier = 0.000594432
vernier = 0.000445824
Gmin = 26.683
vernier = 0.000594432
vernier = 0.000445824
vernier = 0.000594432
Gmin = 26.6582
vernier = 0.000445824
vernier = 0.000594432
vernier = 0.000445824
Gmin = 26.6414
vernier = 0.000594431
vernier = 0.000445824
Gmin = 26.6176
vernier = 0.000594431
vernier = 0.000445823
vernier = 0.000594431
vernier = 0.000445823
Gmin = 26.5998
vernier = 0.000594431
vernier = 0.000445823
Gmin = 26.5761
vernier = 0.000594431
vernier = 0.000445823
vernier = 0.000594431
vernier = 0.000445823
Gmin = 26.5584
vernier = 0.00059443
vernier = 0.000445823
Gmin = 26.5347
vernier = 0.00059443
vernier = 0.000445823
vernier = 0.00059443
Gmin = 26.5101
vernier = 0.000445823
vernier = 0.00059443
vernier = 0.000445823
Gmin = 26.4933
vernier = 0.00059443
vernier = 0.000445822
Gmin = 26.4697
vernier = 0.00059443
vernier = 0.000445822
vernier = 0.00059443
vernier = 0.000445822
Gmin = 26.452
vernier = 0.000594429
vernier = 0.000445822
Gmin = 26.4285
vernier = 0.000594429
vernier = 0.000445822
vernier = 0.000594429
vernier = 0.000445822
Gmin = 26.4108
vernier = 0.000594429
vernier = 0.000445822
Gmin = 26.3873
vernier = 0.000594429
vernier = 0.000445822
vernier = 0.000594429
Gmin = 26.3628
vernier = 0.000445822
vernier = 0.000594429
vernier = 0.000445821
Gmin = 26.3461
vernier = 0.000594428
vernier = 0.000445821
Gmin = 26.3226
vernier = 0.000594428
vernier = 0.000445821
vernier = 0.000594428
vernier = 0.000445821
Gmin = 26.305
vernier = 0.000594428
vernier = 0.000445821
Gmin = 26.2816
vernier = 0.000594428
vernier = 0.000445821
vernier = 0.000594428
vernier = 0.000445821
Gmin = 26.264
vernier = 0.000594428
vernier = 0.000445821
Gmin = 26.2406
vernier = 0.000594427
vernier = 0.000445821
vernier = 0.000594427
Gmin = 26.2163
vernier = 0.00044582
vernier = 0.000594427
vernier = 0.00044582
Gmin = 26.1997
vernier = 0.000594427
vernier = 0.00044582
Gmin = 26.1764
vernier = 0.000594427
vernier = 0.00044582
vernier = 0.000594427
vernier = 0.00044582
Gmin = 26.1589
vernier = 0.000594426
vernier = 0.00044582
Gmin = 26.1356
vernier = 0.000594426
vernier = 0.00044582
vernier = 0.000594426
vernier = 0.00044582
Gmin = 26.1181
vernier = 0.000594426
vernier = 0.00044582
Gmin = 26.0948
vernier = 0.000594426
vernier = 0.000445819
vernier = 0.000594426
Gmin = 26.0706
vernier = 0.000445819
vernier = 0.000594426
vernier = 0.000445819
Gmin = 26.0541
vernier = 0.000594425
vernier = 0.000445819
Gmin = 26.0309
vernier = 0.000594425
vernier = 0.000445819
vernier = 0.000594425
vernier = 0.000445819
Gmin = 26.0135
vernier = 0.000594425
vernier = 0.000445819
Gmin = 25.9903
vernier = 0.000594425
vernier = 0.000445819
vernier = 0.000594425
vernier = 0.000445819
Gmin = 25.9729
vernier = 0.000594425
vernier = 0.000445818
Gmin = 25.9498
vernier = 0.000594424
vernier = 0.000445818
vernier = 0.000594424
Gmin = 25.9257
vernier = 0.000445818
vernier = 0.000594424
vernier = 0.000445818
Gmin = 25.9093
vernier = 0.000594424
vernier = 0.000445818
Gmin = 25.8863
vernier = 0.000594424
vernier = 0.000445818
vernier = 0.000594424
vernier = 0.000445818
Gmin = 25.8689
vernier = 0.000594423
vernier = 0.000445818
Gmin = 25.8459
vernier = 0.000594423
vernier = 0.000445818
vernier = 0.000594423
vernier = 0.000445817
Gmin = 25.8286
vernier = 0.000594423
vernier = 0.000445817
Gmin = 25.8056
vernier = 0.000594423
vernier = 0.000445817
vernier = 0.000594423
Gmin = 25.7816
vernier = 0.000445817
vernier = 0.000594423
vernier = 0.000445817
Gmin = 25.7654
vernier = 0.000594422
vernier = 0.000445817
Gmin = 25.7424
vernier = 0.000594422
vernier = 0.000445817
vernier = 0.000594422
vernier = 0.000445817
Gmin = 25.7252
vernier = 0.000594422
vernier = 0.000445817
Gmin = 25.7023
vernier = 0.000594422
vernier = 0.000445816
vernier = 0.000594422
vernier = 0.000445816
Gmin = 25.6851
vernier = 0.000594422
vernier = 0.000445816
Gmin = 25.6622
vernier = 0.000594421
vernier = 0.000445816
vernier = 0.000594421
Gmin = 25.6384
vernier = 0.000445816
vernier = 0.000594421
vernier = 0.000445816
Gmin = 25.6222
vernier = 0.000594421
vernier = 0.000445816
Gmin = 25.5994
vernier = 0.000594421
vernier = 0.000445816
vernier = 0.000594421
vernier = 0.000445816
Gmin = 25.5822
vernier = 0.000594421
vernier = 0.000445815
Gmin = 25.5594
vernier = 0.00059442
vernier = 0.000445815
vernier = 0.00059442
vernier = 0.000445815
Gmin = 25.5424
vernier = 0.00059442
vernier = 0.000445815
Gmin = 25.5196
vernier = 0.00059442
vernier = 0.000445815
vernier = 0.00059442
Gmin = 25.4959
vernier = 0.000445815
vernier = 0.00059442
vernier = 0.000445815
Gmin = 25.4798
vernier = 0.000594419
vernier = 0.000445815
Gmin = 25.4571
vernier = 0.000594419
vernier = 0.000445815
vernier = 0.000594419
vernier = 0.000445814
Gmin = 25.4401
vernier = 0.000594419
vernier = 0.000445814
Gmin = 25.4174
vernier = 0.000594419
vernier = 0.000445814
vernier = 0.000594419
vernier = 0.000445814
Gmin = 25.4004
vernier = 0.000594419
vernier = 0.000445814
Gmin = 25.3778
vernier = 0.000594418
vernier = 0.000445814
Gmin = 0
Gmin stepping failed

Starting source stepping with srcstepmethod=0
Source Step = 3.0303%
vernier = 0.25
Source Step = 0.0828598%
Source Step = 0.201231%
Source Step = 0.319602%
Source Step = 0.437973%
Source Step = 0.556345%
vernier = 0.00585938
Source Step = 0.710227%
Source Step = 0.887784%
Source Step = 1.06534%
Source Step = 1.2429%
Source Step = 1.42045%
vernier = 0.00878906
Source Step = 1.6424%
Source Step = 1.90874%
Source Step = 2.17507%
Source Step = 2.44141%
Source Step = 2.70774%
vernier = 0.0131836
Source Step = 3.02734%
Source Step = 3.42685%
Source Step = 3.82635%
Source Step = 4.22585%
Source Step = 4.62536%
vernier = 0.0197754
Source Step = 5.08478%
Source Step = 5.68404%
Source Step = 6.28329%
Source Step = 6.88255%
Source Step = 7.4818%
vernier = 0.0296631
Source Step = 8.14098%
Source Step = 9.03986%
Source Step = 9.93874%
Source Step = 10.8376%
Source Step = 11.7365%
vernier = 0.0444946
Source Step = 12.6803%
vernier = 0.0111237
Source Step = 12.8826%
Source Step = 13.2197%
Source Step = 13.5567%
Source Step = 13.8938%
Source Step = 14.2309%
vernier = 0.0166855
Source Step = 14.7197%
Source Step = 15.2253%
Source Step = 15.7309%
Source Step = 16.2365%
Source Step = 16.7422%
vernier = 0.0250282
Source Step = 17.45%
Source Step = 18.2085%
Source Step = 18.9669%
Source Step = 19.7253%
Source Step = 20.4837%
vernier = 0.0375423
Source Step = 21.5076%
Source Step = 22.6453%
Source Step = 23.7829%
Source Step = 24.9206%
Source Step = 26.0582%
vernier = 0.0563135
Source Step = 26.7266%
Source Step = 27.1532%
Source Step = 27.5798%
Source Step = 28.0064%
Source Step = 28.4331%
vernier = 0.0211176
Source Step = 28.945%
Source Step = 29.5849%
Source Step = 30.2248%
Source Step = 30.8648%
Source Step = 31.5047%
vernier = 0.0316764
Source Step = 32.2406%
Source Step = 33.2005%
Source Step = 34.1604%
Source Step = 35.1203%
Source Step = 36.0802%
vernier = 0.0475145
Source Step = 36.8841%
Source Step = 37.244%
Source Step = 37.604%
Source Step = 37.964%
Source Step = 38.3239%
Source Step = 38.6839%
vernier = 0.0178179
Source Step = 39.2238%
Source Step = 39.7637%
Source Step = 40.3037%
Source Step = 40.8436%
Source Step = 41.3836%
vernier = 0.0267269
Source Step = 42.1665%
Source Step = 42.9764%
Source Step = 43.7863%
Source Step = 44.5962%
Source Step = 45.4061%
vernier = 0.0400904
Source Step = 46.54%
Source Step = 47.7548%
Source Step = 48.9697%
Source Step = 50.1845%
Source Step = 51.3994%
vernier = 0.0601356
Source Step = 52.0372%
Source Step = 52.4928%
Source Step = 52.9484%
Source Step = 53.4039%
Source Step = 53.8595%
vernier = 0.0225508
Source Step = 54.429%
Source Step = 55.1123%
Source Step = 55.7957%
Source Step = 56.479%
Source Step = 57.1624%
vernier = 0.0338263
Source Step = 57.9824%
Source Step = 59.0075%
Source Step = 60.0325%
Source Step = 61.0575%
Source Step = 62.0826%
vernier = 0.0507394
Source Step = 62.877%
Source Step = 63.2614%
Source Step = 63.6458%
Source Step = 64.0302%
Source Step = 64.4145%
vernier = 0.0190273
Source Step = 64.8182%
Source Step = 65.3947%
Source Step = 65.9713%
Source Step = 66.5479%
Source Step = 67.1245%
Source Step = 67.7011%
vernier = 0.0285409
Source Step = 68.5659%
Source Step = 69.4308%
Source Step = 70.2957%
Source Step = 71.1606%
Source Step = 72.0255%
vernier = 0.0428114
Source Step = 72.3714%
Source Step = 72.6957%
Source Step = 73.0201%
Source Step = 73.3444%
Source Step = 73.6687%
vernier = 0.0160543
Source Step = 74.1066%
Source Step = 74.5931%
Source Step = 75.0795%
Source Step = 75.566%
Source Step = 76.0525%
vernier = 0.0240814
Source Step = 76.685%
Source Step = 77.4147%
Source Step = 78.1445%
Source Step = 78.8742%
Source Step = 79.6039%
vernier = 0.0361221
Source Step = 80.5161%
Source Step = 81.6107%
Source Step = 82.7053%
Source Step = 83.7999%
Source Step = 84.8945%
vernier = 0.0541831
Source Step = 85.6744%
Source Step = 86.0849%
Source Step = 86.4954%
Source Step = 86.9059%
Source Step = 87.3164%
vernier = 0.0203187
Source Step = 87.7679%
Source Step = 88.3836%
Source Step = 88.9993%
Source Step = 89.615%
Source Step = 90.2308%
vernier = 0.030478
Source Step = 90.8773%
Source Step = 91.8008%
Source Step = 92.7244%
Source Step = 93.648%
Source Step = 94.5716%
Source Step = 95.4951%
vernier = 0.045717
Source Step = 95.8068%
Source Step = 96.1532%
Source Step = 96.4995%
Source Step = 96.8459%
Source Step = 97.1922%
vernier = 0.0171439
Source Step = 97.6771%
Source Step = 98.1966%
Source Step = 98.7161%
Source Step = 99.2356%
Source Step = 99.7551%
vernier = 0.0257158
Source stepping succeeded in finding the operating point.


Date: Tue Aug 28 20:21:11 2018
Total elapsed time: 5.825 seconds.

tnom = 27
temp = 27
method = trap
totiter = 700086
traniter = 0
tranpoints = 0
accept = 0
rejected = 0
matrix size = 58
fillins = 110
solver = Normal
Matrix Compiler1:     443 opcodes
Matrix Compiler2: off  [0.5]/0.7/0.6

