Circuit: * C:\Users\joa-m\Desktop\Draft2.asc

Direct Newton iteration for .op point succeeded.

Date: Mon Aug 13 12:56:02 2018
Total elapsed time: 0.312 seconds.

tnom = 27
temp = 27
method = modified trap
totiter = 19922
traniter = 19911
tranpoints = 7861
accept = 5416
rejected = 2445
matrix size = 38
fillins = 29
solver = Normal
Matrix Compiler1: 2.98 KB object code size  1.5/1.1/[0.4]
Matrix Compiler2: 3.52 KB object code size  0.7/1.1/[0.6]

