Circuit: * C:\Users\joa-m\Desktop\Circuito punto 5\punto 5 senoide.asc

Direct Newton iteration for .op point succeeded.

Date: Mon Aug 20 13:25:13 2018
Total elapsed time: 0.223 seconds.

tnom = 27
temp = 27
method = modified trap
totiter = 3204
traniter = 3194
tranpoints = 1048
accept = 731
rejected = 317
matrix size = 44
fillins = 40
solver = Normal
Matrix Compiler1: 3.96 KB object code size  2.6/1.5/[0.7]
Matrix Compiler2: 4.17 KB object code size  1.2/1.7/[0.8]

