Circuit: * C:\Users\ariel\InformesTC\TP3\EJ3\spice_tests\test02.asc

Direct Newton iteration for .op point succeeded.

Date: Wed Sep 12 15:59:39 2018
Total elapsed time: 0.035 seconds.

tnom = 27
temp = 27
method = trap
totiter = 4
traniter = 0
tranpoints = 0
accept = 0
rejected = 0
matrix size = 9
fillins = 0
solver = Normal
Matrix Compiler1:      21 opcodes
Matrix Compiler2: 657 bytes object code size
