Circuit: * C:\Users\ariel\InformesTC\TP3\EJ3\spice_tests\test03.asc

Early termination of direct N-R iteration.
Direct Newton iteration failed to find .op point.  (Use ".option noopiter" to skip.)
Starting Gmin stepping
Gmin = 10
vernier = 0.5
Gmin = 1.86414
vernier = 0.25
vernier = 0.125
Gmin = 1.37541
vernier = 0.166667
vernier = 0.0833333
vernier = 0.0416667
Gmin = 1.19105
vernier = 0.0555555
vernier = 0.0277778
Gmin = 1.1115
vernier = 0.037037
vernier = 0.0185185
vernier = 0.0246913
vernier = 0.0123457
Gmin = 1.07863
vernier = 0.0164609
vernier = 0.00823044
Gmin = 1.05561
vernier = 0.0109739
vernier = 0.00548696
vernier = 0.00731595
Gmin = 1.04219
vernier = 0.00365797
vernier = 0.0048773
Gmin = 1.03365
vernier = 0.00243865
vernier = 0.00325153
Gmin = 1.028
vernier = 0.00162576
vernier = 0.00216769
Gmin = 1.02397
vernier = 0.00289025
vernier = 0.00144512
Gmin = 1.02028
vernier = 0.00192683
vernier = 0.000963415
vernier = 0.00128455
Gmin = 1.01803
vernier = 0.00171274
vernier = 0.000856369
Gmin = 1.01585
vernier = 0.00114182
vernier = 0.000570912
vernier = 0.000761216
Gmin = 1.01442
vernier = 0.00101495
vernier = 0.000507477
Gmin = 1.01307
vernier = 0.000676636
vernier = 0.000902182
vernier = 0.000451091
Gmin = 1.01179
vernier = 0.000601454
vernier = 0.000451091
Gmin = 1.01084
vernier = 0.000601454
vernier = 0.000451091
Gmin = 1.00993
vernier = 0.000601454
vernier = 0.000451091
Gmin = 0
Gmin stepping failed

Starting source stepping with srcstepmethod=0
Source Step = 3.0303%
Source Step = 33.3333%
Source Step = 63.6364%
Source Step = 93.9394%
vernier = 0.25
Source Step = 98.4848%
Source stepping succeeded in finding the operating point.


Date: Wed Sep 12 18:43:35 2018
Total elapsed time: 1.341 seconds.

tnom = 27
temp = 27
method = modified trap
totiter = 15648
traniter = 2088
tranpoints = 1045
accept = 1045
rejected = 0
matrix size = 107
fillins = 328
solver = Normal
Thread vector: 38.5/20.3[2] 1.9/1.6[2] 3.6/1.8[2] 2.6/4.9[1]  2592/500
Matrix Compiler1: 22.10 KB object code size  4.0/2.0/[1.0]
Matrix Compiler2: 14.88 KB object code size  7.6/6.8/[3.4]

