Circuit: * C:\Users\newtonis\InformesTC\TP5\EJ4\UNIVERSAL_ETAPA2_MODIFICADO.asc

Early termination of direct N-R iteration.
Direct Newton iteration failed to find .op point.  (Use ".option noopiter" to skip.)
Starting Gmin stepping
Gmin = 10
vernier = 0.5
vernier = 0.25
vernier = 0.125
Gmin = 5.49741
vernier = 0.0625
vernier = 0.03125
vernier = 0.015625
vernier = 0.0078125
vernier = 0.00390625
Gmin = 5.49741
vernier = 0.00195313
vernier = 0.000976563
vernier = 0.000488281
Gmin = 0
Gmin stepping failed

Starting source stepping with srcstepmethod=0
Source Step = 3.0303%
Source Step = 33.3333%
Source Step = 63.6364%
Source Step = 93.9394%
Source stepping succeeded in finding the operating point.


Date: Tue Oct 30 20:14:50 2018
Total elapsed time: 2.547 seconds.

tnom = 27
temp = 27
method = modified trap
totiter = 76532
traniter = 74868
tranpoints = 37435
accept = 24879
rejected = 12556
matrix size = 151
fillins = 1133
solver = Normal
Thread vector: 8.4/5.2[3] 2.9/2.2[3] 3.0/2.3[3] 1.3/1.6[1]  2592/500
Matrix Compiler1: 125.21 KB object code size  14.8/7.7/[4.2]
Matrix Compiler2: 33.12 KB object code size  6.1/4.6/[2.1]

