Circuit: * C:\Users\ariel\informesTC\TP5\EJ4\UNIVERSAL_ETAPA2_MODIFICADO.asc

Early termination of direct N-R iteration.
Direct Newton iteration failed to find .op point.  (Use ".option noopiter" to skip.)
Starting Gmin stepping
Increasing initial diagonal Gmin to 100
Gmin = 100
vernier = 0.5
vernier = 0.25
Gmin = 30.8405
vernier = 0.125
vernier = 0.0625
vernier = 0.03125
vernier = 0.015625
Gmin = 30.1306
vernier = 0.0078125
vernier = 0.00390625
vernier = 0.00195313
vernier = 0.000976563
Gmin = 29.9549
vernier = 0.000488281
Gmin = 0
Gmin stepping failed

Starting source stepping with srcstepmethod=0
Source Step = 3.0303%
Source Step = 33.3333%
Source Step = 63.6364%
Source Step = 93.9394%
Source stepping succeeded in finding the operating point.


Date: Wed Oct 31 13:01:20 2018
Total elapsed time: 306.495 seconds.

tnom = 27
temp = 27
method = modified trap
totiter = 1057361
traniter = 1055603
tranpoints = 351578
accept = 248992
rejected = 102586
matrix size = 237
fillins = 5137
solver = Normal
Thread vector: 56.8/32.8[6] 5.9/4.0[6] 23.4/6.9[6] 8.6/11.2[1]  2592/500
Matrix Compiler1: 1.57 MB object code size  272.8/125.0/[79.6]
Matrix Compiler2: 110.23 KB object code size  49.1/41.2/[17.7]

