Circuit: * C:\Users\joa-m\InformesTC\TP2\EJ5\LTSPICE\Draft1.asc

Ignoring empty pin current: Ix(u1:1)
Ignoring empty pin current: Ix(u1:2)

Date: Tue Sep 11 12:15:07 2018
Total elapsed time: 0.040 seconds.

tnom = 27
temp = 27
method = trap
totiter = 0
traniter = 0
tranpoints = 0
accept = 0
rejected = 0
matrix size = 4
fillins = 0
solver = Normal

