Circuit: * C:\Users\Marcelo\Documents\GitHub\InformesTC\TP2\EJ5\LTSPICE\punto 5 senoide.asc

Direct Newton iteration for .op point succeeded.

Date: Fri Aug 24 00:51:06 2018
Total elapsed time: 0.047 seconds.

tnom = 27
temp = 27
method = trap
totiter = 10
traniter = 0
tranpoints = 0
accept = 0
rejected = 0
matrix size = 44
fillins = 40
solver = Normal
Matrix Compiler1:     224 opcodes
Matrix Compiler2: 4.18 KB object code size
