<<<<<<< HEAD
Circuit: * C:\Users\joa-m\Desktop\EJ5 - backup\LTSPICE\punto 5 senoide.asc

Direct Newton iteration for .op point succeeded.

Date: Fri Aug 24 21:45:39 2018
Total elapsed time: 0.073 seconds.
=======
Circuit: * C:\Users\Marcelo\Documents\GitHub\InformesTC\TP2\EJ5\LTSPICE\punto 5 senoide.asc

Direct Newton iteration for .op point succeeded.

Date: Fri Aug 24 00:51:06 2018
Total elapsed time: 0.047 seconds.
>>>>>>> d9d06b8d0ab44665f9a23abe520af6095d16e5d3

tnom = 27
temp = 27
method = trap
totiter = 10
traniter = 0
tranpoints = 0
accept = 0
rejected = 0
<<<<<<< HEAD
matrix size = 42
fillins = 40
solver = Normal
Matrix Compiler1:     218 opcodes
Matrix Compiler2: 4.04 KB object code size
=======
matrix size = 44
fillins = 40
solver = Normal
Matrix Compiler1:     224 opcodes
Matrix Compiler2: 4.18 KB object code size
>>>>>>> d9d06b8d0ab44665f9a23abe520af6095d16e5d3
