Circuit: * C:\Users\joa-m\InformesTC\TP2\EJ5\LTSPICE\punto 5 senoide.asc

Direct Newton iteration failed to find .op point.  (Use ".option noopiter" to skip.)
Starting Gmin stepping
Gmin = 10
vernier = 0.5
vernier = 0.25
vernier = 0.125
Gmin = 5.5165
vernier = 0.0625
vernier = 0.03125
vernier = 0.015625
vernier = 0.0078125
Gmin = 5.49501
vernier = 0.00390625
vernier = 0.00195313
vernier = 0.000976563
vernier = 0.000488281
Gmin = 5.50104
Gmin = 0
Gmin stepping succeeded in finding the operating point.

Ignoring empty pin current: Ix(u2:1)
Ignoring empty pin current: Ix(u2:2)
Ignoring empty pin current: Ix(u2:1)
Ignoring empty pin current: Ix(u2:2)

Date: Sat Aug 25 21:31:53 2018
Total elapsed time: 0.109 seconds.

tnom = 27
temp = 27
method = trap
totiter = 1565
traniter = 0
tranpoints = 0
accept = 0
rejected = 0
matrix size = 36
fillins = 43
solver = Normal
Matrix Compiler1:     186 opcodes
Matrix Compiler2:     270 opcodes  0.5/[0.4]/0.6

