Circuit: * C:\Users\Marcelo\Documents\GitHub\InformesTC\TP7\Simulacion\Circuito1\Circuito1.asc

Ignoring empty pin current: Ix(u1:1)
Ignoring empty pin current: Ix(u1:2)

Date: Mon Nov 19 20:34:05 2018
Total elapsed time: 0.031 seconds.

tnom = 27
temp = 27
method = trap
totiter = 0
traniter = 0
tranpoints = 0
accept = 0
rejected = 0
matrix size = 5
fillins = 0
solver = Normal

