Circuit: * C:\Users\Marcelo\Documents\GitHub\InformesTC\TP2\EJ_1_simulaciones\Draft2.asc

Direct Newton iteration for .op point succeeded.

Date: Sun Aug 26 15:19:55 2018
Total elapsed time: 0.047 seconds.

tnom = 27
temp = 27
method = trap
totiter = 11
traniter = 0
tranpoints = 0
accept = 0
rejected = 0
matrix size = 38
fillins = 28
solver = Normal
Matrix Compiler1:     169 opcodes
Matrix Compiler2: 3.51 KB object code size
