Circuit: * C:\Users\newtonis\InformesTC\TP2\EJ_1_simulaciones\EJ_1_simulaciones_NoInversor.asc

Direct Newton iteration for .op point succeeded.

Date: Sat Aug 25 13:02:37 2018
Total elapsed time: 0.071 seconds.

tnom = 27
temp = 27
method = trap
totiter = 12
traniter = 0
tranpoints = 0
accept = 0
rejected = 0
matrix size = 39
fillins = 40
solver = Normal
Matrix Compiler1:     207 opcodes
Matrix Compiler2: 3.82 KB object code size
