Circuit: * C:\Users\newtonis\InformesTC\TP2\EJ_1_simulaciones\EJ_1_simulaciones_NoInversor.asc

Direct Newton iteration for .op point succeeded.

Date: Sat Aug 25 08:31:28 2018
Total elapsed time: 0.031 seconds.

tnom = 27
temp = 27
method = trap
totiter = 12
traniter = 0
tranpoints = 0
accept = 0
rejected = 0
matrix size = 40
fillins = 40
solver = Normal
Matrix Compiler1:     214 opcodes
Matrix Compiler2: 3.93 KB object code size
