Circuit: * C:\Users\ariel\InformesTC\TP2\EJ_1_simulaciones\EJ_1_simulaciones_NoInversor.asc

Direct Newton iteration for .op point succeeded.

<<<<<<< HEAD
Date: Sat Aug 25 10:50:18 2018
Total elapsed time: 0.016 seconds.
=======
Date: Sat Aug 25 14:07:55 2018
Total elapsed time: 0.079 seconds.
>>>>>>> f7b0de76afbc9c9a0057f4eecab25e535280c4b1

tnom = 27
temp = 27
method = trap
totiter = 12
traniter = 0
tranpoints = 0
accept = 0
rejected = 0
matrix size = 39
fillins = 40
solver = Normal
Matrix Compiler1:     207 opcodes
Matrix Compiler2: 3.82 KB object code size
