Circuit: * C:\Users\ariel\InformesTC\TP2\EJ1\EJ_1_simulaciones\EJ_1_simulaciones_Inversor.asc

Direct Newton iteration for .op point succeeded.

Date: Mon Aug 27 14:58:52 2018
Total elapsed time: 0.042 seconds.

tnom = 27
temp = 27
method = trap
totiter = 13
traniter = 0
tranpoints = 0
accept = 0
rejected = 0
matrix size = 38
fillins = 28
solver = Normal
Matrix Compiler1:     168 opcodes
Matrix Compiler2: 3.51 KB object code size
