Circuit: * C:\Users\Marcelo\Documents\GitHub\InformesTC\TP6\EJ3\Simulacion\AdaptacionVi.asc

Direct Newton iteration for .op point succeeded.

Date: Fri Nov 02 18:13:59 2018
Total elapsed time: 0.063 seconds.

tnom = 27
temp = 27
method = modified trap
totiter = 2058
traniter = 2040
tranpoints = 1021
accept = 1021
rejected = 0
matrix size = 53
fillins = 104
solver = Normal
Matrix Compiler1: 8.23 KB object code size  1.2/0.7/[0.4]
Matrix Compiler2: 6.29 KB object code size  0.5/0.6/[0.3]

