Circuit: * C:\Users\Marcelo\Documents\GitHub\InformesTC\TP6\EJ3\Simulacion\VCO.asc

Per .tran options, skipping operating point for transient analysis.

Date: Sun Nov 04 15:56:05 2018
Total elapsed time: 0.125 seconds.

tnom = 27
temp = 27
method = modified trap
totiter = 4080
traniter = 4080
tranpoints = 1370
accept = 1057
rejected = 313
matrix size = 182
fillins = 415
solver = Normal
Thread vector: 16.3/8.8[4] 4.5/3.2[4] 4.0/2.5[4] 1.3/2.2[1]  2592/500
Matrix Compiler1: 32.43 KB object code size  7.4/4.0/[1.8]
Matrix Compiler2: 23.15 KB object code size  2.7/3.1/[1.3]

