Circuit: * C:\Users\Marcelo\Documents\GitHub\InformesTC\TP6\EJ3\Simulacion\VCO.asc

Per .tran options, skipping operating point for transient analysis.

Date: Sun Nov 04 19:29:01 2018
Total elapsed time: 0.250 seconds.

tnom = 27
temp = 27
method = modified trap
totiter = 9352
traniter = 9352
tranpoints = 3132
accept = 2322
rejected = 810
matrix size = 182
fillins = 415
solver = Normal
Thread vector: 12.5/7.3[4] 4.2/2.6[4] 3.9/2.2[4] 0.9/2.5[1]  2592/500
Matrix Compiler1: 32.43 KB object code size  7.0/3.3/[1.4]
Matrix Compiler2: 23.15 KB object code size  2.4/2.6/[1.1]

