Circuit: * C:\Users\Marcelo\Documents\GitHub\InformesTC\TP6\EJ3\Simulacion\VCO.asc

Per .tran options, skipping operating point for transient analysis.

Date: Sat Nov 03 21:33:19 2018
Total elapsed time: 0.392 seconds.

tnom = 27
temp = 27
method = modified trap
totiter = 4893
traniter = 4893
tranpoints = 1672
accept = 1257
rejected = 415
matrix size = 182
fillins = 415
solver = Normal
Thread vector: 16.5/9.7[4] 4.5/4.3[1] 4.4/3.2[4] 1.3/2.9[1]  2592/500
Matrix Compiler1: 32.43 KB object code size  8.0/4.1/[1.9]
Matrix Compiler2: 23.15 KB object code size  2.7/2.8/[1.6]

