Circuit: * C:\Users\Marcelo\Documents\GitHub\InformesTC\TP6\EJ3\Simulacion\VCO.asc

Per .tran options, skipping operating point for transient analysis.
Changing Tseed to 1e-008
Changing Tseed to 1e-010
Changing Tseed to 1e-007

Date: Tue Nov 06 12:12:26 2018
Total elapsed time: 0.687 seconds.

tnom = 27
temp = 27
method = modified trap
totiter = 30474
traniter = 30474
tranpoints = 10327
accept = 7510
rejected = 2814
matrix size = 182
fillins = 415
solver = Normal
Thread vector: 18.2/7.3[4] 3.9/5.3[1] 3.2/3.4[1] 1.2/2.6[1]  2592/500
Matrix Compiler1: 32.43 KB object code size  6.6/3.4/[2.4]
Matrix Compiler2: 23.15 KB object code size  2.5/2.6/[2.2]

