Circuit: * C:\Users\Marcelo\Documents\GitHub\InformesTC\TP6\EJ3\Simulacion\VCO.asc

R15: both pins shorted together -- ignoring.
Early termination of direct N-R iteration.
Direct Newton iteration failed to find .op point.  (Use ".option noopiter" to skip.)
Starting Gmin stepping
Gmin = 10
vernier = 0.5
vernier = 0.25
vernier = 0.125
Gmin = 5.5165
vernier = 0.0625
vernier = 0.03125
vernier = 0.015625
vernier = 0.0078125
Gmin = 5.49501
vernier = 0.00390625
vernier = 0.00195313
vernier = 0.000976563
vernier = 0.000488281
Gmin = 5.50104
Gmin = 0
Gmin stepping failed

Starting source stepping with srcstepmethod=0
Source Step = 3.0303%
Source Step = 17.6136%
Source Step = 17.9628%
Source Step = 17.9924%
Source Step = 18.022%
Source Step = 18.0516%
Source Step = 18.0812%
Source Step = 18.1108%
vernier = 0.00146484
Source Step = 18.1537%
Source Step = 18.1981%
Source Step = 18.2425%
Source Step = 18.2869%
Source Step = 18.3313%
vernier = 0.00219727
Source Step = 18.3934%
Source Step = 18.46%
Source Step = 18.5266%
Source Step = 18.5932%
Source Step = 18.6597%
vernier = 0.0032959
Source Step = 18.7496%
Source Step = 18.8495%
Source Step = 18.9494%
Source Step = 19.0493%
Source Step = 19.1491%
vernier = 0.00494385
Source Step = 19.279%
Source Step = 19.4288%
Source Step = 19.5786%
Source Step = 19.7284%
Source Step = 19.8782%
vernier = 0.00741577
Source Step = 20.0655%
Source Step = 20.2902%
Source Step = 20.5149%
Source Step = 20.7397%
Source Step = 20.9644%
vernier = 0.0111237
Source Step = 21.234%
Source Step = 21.5711%
Source Step = 21.9082%
Source Step = 22.2453%
Source Step = 22.5824%
vernier = 0.0166855
Source Step = 22.97%
Source Step = 23.4756%
Source Step = 23.9812%
Source Step = 24.4869%
Source Step = 24.9925%
vernier = 0.0250282
Source Step = 25.5487%
Source Step = 26.3071%
Source Step = 27.0655%
Source Step = 27.824%
Source Step = 28.5824%
vernier = 0.0375423
Source Step = 29.3787%
Source Step = 30.5164%
Source Step = 31.654%
Source Step = 32.7917%
Source Step = 33.9293%
Source Step = 35.067%
vernier = 0.0563135
Source Step = 36.7735%
Source Step = 38.4799%
Source Step = 40.1864%
Source Step = 41.8929%
Source Step = 43.5993%
vernier = 0.0844703
Source Step = 46.0737%
Source Step = 48.6334%
Source Step = 51.1931%
Source Step = 53.7528%
Source Step = 56.3125%
vernier = 0.126705
Source Step = 59.8961%
Source Step = 63.7357%
Source Step = 66.3274%
vernier = 0.00791909
Source Step = 66.3394%
Source Step = 66.3994%
Source Step = 66.4594%
Source Step = 66.5194%
Source Step = 66.5794%
vernier = 0.00296966
Source Step = 66.6483%
Source Step = 66.7383%
Source Step = 66.8283%
Source Step = 66.9183%
Source Step = 67.0083%
vernier = 0.00445449
Source Step = 67.1073%
Source Step = 67.2423%
Source Step = 67.3773%
Source Step = 67.5122%
Source Step = 67.6472%
vernier = 0.00668173
Source Step = 67.789%
Source Step = 67.9914%
Source Step = 68.1939%
Source Step = 68.3964%
Source Step = 68.5989%
Source Step = 68.8013%
vernier = 0.0100226
Source Step = 69.1051%
Source Step = 69.4088%
Source Step = 69.7125%
Source Step = 70.0162%
Source Step = 70.3199%
vernier = 0.0150339
Source Step = 70.7603%
Source Step = 71.2159%
Source Step = 71.6715%
Source Step = 72.127%
Source Step = 72.5826%
vernier = 0.0225508
Source Step = 73.2204%
Source Step = 73.9038%
Source Step = 74.5871%
Source Step = 75.2705%
Source Step = 75.9538%
vernier = 0.0338263
Source Step = 76.8764%
Source Step = 77.9014%
Source Step = 78.9264%
Source Step = 79.9515%
Source Step = 80.9765%
vernier = 0.0507394
Source Step = 82.3091%
Source Step = 83.8466%
Source Step = 85.3842%
Source Step = 86.9217%
Source Step = 88.4593%
vernier = 0.0761091
Source Step = 90.3812%
Source Step = 90.6335%
Source Step = 90.6695%
Source Step = 90.7056%
Source Step = 90.7416%
Source Step = 90.7776%
Source Step = 90.8137%
Source Step = 90.8497%
Source Step = 90.8858%
Source Step = 90.9218%
Source Step = 90.9578%
Source Step = 90.9939%
Source Step = 91.0299%
Source Step = 91.0659%
Source Step = 91.102%
Source Step = 91.138%
Source Step = 91.174%
Source Step = 91.2101%
Source Step = 91.2461%
Source Step = 91.2822%
Source Step = 91.3182%
Source Step = 91.3542%
vernier = 0.00178381
Source Step = 91.3975%
Source Step = 91.4515%
Source Step = 91.5056%
Source Step = 91.5596%
Source Step = 91.6137%
vernier = 0.00267571
Source Step = 91.6759%
Source Step = 91.7569%
Source Step = 91.838%
Source Step = 91.9191%
Source Step = 92.0002%
vernier = 0.00401357
Source Step = 92.0894%
Source Step = 92.211%
Source Step = 92.3326%
Source Step = 92.4542%
Source Step = 92.5759%
vernier = 0.00602035
Source Step = 92.7036%
Source Step = 92.886%
Source Step = 93.0684%
Source Step = 93.2509%
Source Step = 93.4333%
Source Step = 93.6157%
vernier = 0.00903052
Source Step = 93.8894%
Source Step = 94.1631%
Source Step = 94.4367%
Source Step = 94.7104%
Source Step = 94.984%
vernier = 0.0135458
Source Step = 95.3808%
Source Step = 95.7913%
Source Step = 96.2018%
Source Step = 96.6122%
Source Step = 97.0227%
vernier = 0.0203187
Source Step = 97.5974%
Source Step = 98.2131%
Source Step = 98.8288%
Source Step = 99.4445%
Source Step = 100%
Source stepping succeeded in finding the operating point.


Date: Fri Nov 02 17:21:28 2018
Total elapsed time: 3.686 seconds.

tnom = 27
temp = 27
method = modified trap
totiter = 22033
traniter = 2872
tranpoints = 1004
accept = 814
rejected = 190
matrix size = 90
fillins = 552
solver = Normal
Thread vector: 6.8/4.6[2] 1.7/2.2[1] 1.4/2.0[1] 0.6/2.4[1]  2592/500
Matrix Compiler1: 54.41 KB object code size  7.3/4.0/[2.3]
Matrix Compiler2: 17.62 KB object code size  3.7/2.7/[0.9]

