Circuit: * C:\Users\Marcelo\Documents\GitHub\InformesTC\TP7\Simulacion\Completo\FiltroHP_N10_MC.asc

Early termination of direct N-R iteration.
Direct Newton iteration failed to find .op point.  (Use ".option noopiter" to skip.)
Starting Gmin stepping
Gmin = 10
vernier = 0.5
vernier = 0.25
vernier = 0.125
Gmin = 5.49741
vernier = 0.0625
vernier = 0.03125
vernier = 0.015625
vernier = 0.0078125
Gmin = 5.51716
vernier = 0.00390625
vernier = 0.00195313
vernier = 0.000976563
vernier = 0.000488281
Gmin = 5.50104
Gmin = 0
Gmin stepping failed

Starting source stepping with srcstepmethod=0
Source Step = 3.0303%
Source Step = 33.3333%
Source Step = 63.6364%
Source Step = 93.9394%
Source stepping succeeded in finding the operating point.


Date: Wed Nov 21 02:03:50 2018
Total elapsed time: 13.899 seconds.

tnom = 27
temp = 27
method = trap
totiter = 1657
traniter = 0
tranpoints = 0
accept = 0
rejected = 0
matrix size = 379
fillins = 12909
solver = Normal
Matrix Compiler1:  334892 opcodes
Matrix Compiler2: 257.33 KB object code size  77.4/31.4/[23.3]

