Circuit: * C:\Users\newtonis\InformesTC\TP5\EJ4\simulaciones\UNIVERSAL_ETAPA2_MODIFICADO.asc

Early termination of direct N-R iteration.
Direct Newton iteration failed to find .op point.  (Use ".option noopiter" to skip.)
Starting Gmin stepping
Gmin = 10
vernier = 0.5
vernier = 0.25
vernier = 0.125
Gmin = 5.6588
vernier = 0.0625
vernier = 0.03125
vernier = 0.015625
Gmin = 5.48561
vernier = 0.0078125
vernier = 0.00390625
vernier = 0.00195313
vernier = 0.000976563
Gmin = 5.49764
vernier = 0.000488281
Gmin = 0
Gmin stepping failed

Starting source stepping with srcstepmethod=0
Source Step = 3.0303%
Source Step = 33.3333%
Source Step = 63.6364%
Source Step = 93.9394%
Source stepping succeeded in finding the operating point.


Date: Sat Nov 24 15:02:59 2018
Total elapsed time: 3.744 seconds.

tnom = 27
temp = 27
method = trap
totiter = 1745
traniter = 0
tranpoints = 0
accept = 0
rejected = 0
matrix size = 278
fillins = 5116
solver = Normal
Matrix Compiler1:   58056 opcodes
Matrix Compiler2: 114.32 KB object code size  19.3/9.4/[7.2]

