Circuit: * C:\Users\Marcelo\Documents\GitHub\InformesTC\TP5\EJ2\Simulacion\FiltroPB.asc

Early termination of direct N-R iteration.
Direct Newton iteration failed to find .op point.  (Use ".option noopiter" to skip.)
Starting Gmin stepping
Gmin = 10
vernier = 0.5
vernier = 0.25
vernier = 0.125
Gmin = 5.5165
vernier = 0.0625
vernier = 0.03125
vernier = 0.015625
vernier = 0.0078125
Gmin = 5.49501
vernier = 0.00390625
vernier = 0.00195313
vernier = 0.000976563
vernier = 0.000488281
Gmin = 5.50104
Gmin = 0
Gmin stepping failed

Starting source stepping with srcstepmethod=0
Source Step = 3.0303%
Source Step = 33.3333%
Source Step = 63.6364%
Source Step = 93.9394%
Source stepping succeeded in finding the operating point.


Date: Mon Oct 22 11:41:53 2018
Total elapsed time: 0.156 seconds.

tnom = 27
temp = 27
method = modified trap
totiter = 4896
traniter = 3242
tranpoints = 1622
accept = 1416
rejected = 206
matrix size = 56
fillins = 162
solver = Normal
Matrix Compiler1: 11.14 KB object code size  1.9/0.9/[0.5]
Matrix Compiler2: 7.75 KB object code size  1.6/1.3/[0.4]

