Circuit: * C:\Users\joa-m\InformesTC\TP3\EJ2\LTSPICE\gyrator.asc

WARNING: Less than two connections to node -VCC.  This node is used by V2.
WARNING: Less than two connections to node +VCC.  This node is used by V3.
Ignoring empty pin current: Ix(u1:1)
Ignoring empty pin current: Ix(u1:2)

Date: Wed Sep 12 01:12:30 2018
Total elapsed time: 0.077 seconds.

tnom = 27
temp = 27
method = trap
totiter = 0
traniter = 0
tranpoints = 0
accept = 0
rejected = 0
matrix size = 10
fillins = 2
solver = Normal

