Circuit: * C:\Users\joa-m\InformesTC\TP3\EJ2\LTSPICE\gyrator_Highpass.asc

Direct Newton iteration for .op point succeeded.

Date: Thu Sep 13 21:43:29 2018
Total elapsed time: 0.043 seconds.

tnom = 27
temp = 27
method = trap
totiter = 17
traniter = 0
tranpoints = 0
accept = 0
rejected = 0
matrix size = 31
fillins = 49
solver = Normal
Matrix Compiler1:     237 opcodes
Matrix Compiler2: 3.38 KB object code size
