Circuit: * C:\Users\joa-m\InformesTC\TP3\EJ2\LTSPICE\gyrator_bandreject.asc

Direct Newton iteration failed to find .op point.  (Use ".option noopiter" to skip.)
Starting Gmin stepping
Gmin = 10
vernier = 0.5
vernier = 0.25
vernier = 0.125
Gmin = 5.5165
vernier = 0.0625
vernier = 0.03125
vernier = 0.015625
vernier = 0.0078125
Gmin = 5.48432
vernier = 0.00390625
vernier = 0.00195313
vernier = 0.000976563
vernier = 0.000488281
Gmin = 0
Gmin stepping failed

Starting source stepping with srcstepmethod=0
Source Step = 3.0303%
Source Step = 33.3333%
Source Step = 63.6364%
Source Step = 93.9394%
Source stepping succeeded in finding the operating point.


Date: Tue Sep 18 17:47:58 2018
Total elapsed time: 0.082 seconds.

tnom = 27
temp = 27
method = trap
totiter = 1683
traniter = 0
tranpoints = 0
accept = 0
rejected = 0
matrix size = 31
fillins = 52
solver = Normal
Matrix Compiler1:     208 opcodes
Matrix Compiler2: off  [0.5]/0.6/0.7

