Circuit: * C:\Users\joa-m\Desktop\Circuito punto 5\punto 5.asc

Direct Newton iteration for .op point succeeded.
