Circuit: * C:\Users\Marcelo\Documents\GitHub\InformesTC\TP3\EJ4\Simulacion\Draft1.asc


Date: Mon Sep 24 14:55:25 2018
Total elapsed time: 0.016 seconds.

tnom = 27
temp = 27
method = trap
totiter = 0
traniter = 0
tranpoints = 0
accept = 0
rejected = 0
matrix size = 4
fillins = 0
solver = Normal

