Circuit: * C:\Users\Marcelo\Documents\GitHub\InformesTC\TP3\EJ4\Simulacion\Ecualizador.asc

Early termination of direct N-R iteration.
Direct Newton iteration failed to find .op point.  (Use ".option noopiter" to skip.)
Starting Gmin stepping
Gmin = 10
vernier = 0.5
vernier = 0.25
vernier = 0.125
Gmin = 5.5165
vernier = 0.0625
vernier = 0.03125
vernier = 0.015625
vernier = 0.0078125
Gmin = 5.49501
vernier = 0.00390625
vernier = 0.00195313
vernier = 0.000976563
vernier = 0.000488281
Gmin = 5.50104
Gmin = 0
Gmin stepping failed

Starting source stepping with srcstepmethod=0
Source Step = 3.0303%
Source Step = 33.3333%
Source Step = 63.6364%
Source Step = 93.9394%
Source stepping succeeded in finding the operating point.


Date: Wed Sep 19 00:24:33 2018
Total elapsed time: 206.567 seconds.

tnom = 27
temp = 27
method = modified trap
totiter = 10230334
traniter = 10228652
tranpoints = 5114327
accept = 4466833
rejected = 647494
matrix size = 108
fillins = 921
solver = Normal
Thread vector: 7.6/4.7[2] 2.1/2.3[1] 2.4/3.3[1] 0.9/1.6[1]  2592/500
Matrix Compiler1: 136.51 KB object code size  16.4/11.6/[6.2]
Matrix Compiler2: 25.37 KB object code size  5.5/3.5/[1.6]

