Circuit: * C:\Users\Marcelo\Documents\GitHub\InformesTC\TP3\EJ1\Simulacion\GIC_1.asc

Early termination of direct N-R iteration.
Direct Newton iteration failed to find .op point.  (Use ".option noopiter" to skip.)
Starting Gmin stepping
Gmin = 10
vernier = 0.5
vernier = 0.25
vernier = 0.125
Gmin = 5.841
vernier = 0.0625
vernier = 0.03125
vernier = 0.015625
vernier = 0.0078125
Gmin = 5.97672
vernier = 0.00390625
vernier = 0.00195313
vernier = 0.000976563
vernier = 0.000488281
Gmin = 5.98328
Gmin = 0
Gmin stepping failed

Starting source stepping with srcstepmethod=0
Source Step = 3.0303%
Source Step = 33.3333%
Source Step = 63.6364%
Source Step = 93.9394%
Source stepping succeeded in finding the operating point.

.step run=1
.step run=2
.step run=3
.step run=4
.step run=5
.step run=6
.step run=7
.step run=8
.step run=9
.step run=10

Date: Wed Sep 12 17:17:13 2018
Total elapsed time: 0.803 seconds.

tnom = 27
temp = 27
method = trap
totiter = 1670
traniter = 0
tranpoints = 0
accept = 0
rejected = 0
matrix size = 53
fillins = 263
solver = Normal
Matrix Compiler1:     978 opcodes
Matrix Compiler2: 9.31 KB object code size  1.0/0.8/[0.6]

