Circuit: * C:\Users\joa-m\InformesTC\TP2\EJ3\LTSPICE\EJ4.asc

Fatal Error: Multiple instances of "Circle"
