Circuit: * C:\Users\joa-m\InformesTC\TP5\EJ3\Simulaciones\rtaescalon.asc

WARNING: Less than two connections to node NC_01.  This node is used by V1.
Early termination of direct N-R iteration.
Direct Newton iteration failed to find .op point.  (Use ".option noopiter" to skip.)
Starting Gmin stepping
Gmin = 10
vernier = 0.5
vernier = 0.25
vernier = 0.125
Gmin = 5.841
vernier = 0.0625
vernier = 0.03125
vernier = 0.015625
vernier = 0.0078125
Gmin = 5.97672
vernier = 0.00390625
vernier = 0.00195313
vernier = 0.000976563
vernier = 0.000488281
Gmin = 5.98328
Gmin = 0
Gmin stepping failed

Starting source stepping with srcstepmethod=0
Source Step = 3.0303%
Source Step = 33.3333%
Source Step = 63.6364%
Source Step = 93.9394%
Source stepping succeeded in finding the operating point.


Date: Wed Oct 31 01:17:49 2018
Total elapsed time: 0.484 seconds.

tnom = 27
temp = 27
method = modified trap
totiter = 4650
traniter = 3005
tranpoints = 1460
accept = 1061
rejected = 399
matrix size = 80
fillins = 583
solver = Normal
Thread vector: 49.0/30.8[2] 1.8/1.5[2] 6.1/2.1[2] 3.7/5.5[1]  2592/500
Matrix Compiler1: 65.23 KB object code size  9.7/4.8/[2.4]
Matrix Compiler2: off  [4.8]/7.7/6.7

