Circuit: * C:\Users\joa-m\InformesTC\TP5\EJ3\Simulaciones\SedraConPablomenos05.asc

Early termination of direct N-R iteration.
Direct Newton iteration failed to find .op point.  (Use ".option noopiter" to skip.)
Starting Gmin stepping
Gmin = 10
vernier = 0.5
vernier = 0.25
vernier = 0.125
Gmin = 5.841
vernier = 0.0625
vernier = 0.03125
vernier = 0.015625
vernier = 0.0078125
Gmin = 5.97672
vernier = 0.00390625
vernier = 0.00195313
vernier = 0.000976563
vernier = 0.000488281
Gmin = 5.98328
Gmin = 0
Gmin stepping failed

Starting source stepping with srcstepmethod=0
Source Step = 3.0303%
Source Step = 33.3333%
Source Step = 63.6364%
Source Step = 93.9394%
Source stepping succeeded in finding the operating point.


Date: Sun Oct 28 14:30:30 2018
Total elapsed time: 0.461 seconds.

tnom = 27
temp = 27
method = trap
totiter = 1682
traniter = 0
tranpoints = 0
accept = 0
rejected = 0
matrix size = 100
fillins = 986
solver = Normal
Matrix Compiler1:    6828 opcodes
Matrix Compiler2: 26.21 KB object code size  5.5/4.2/[2.5]

