Circuit: * C:\Users\joa-m\InformesTC\TP5\EJ3\Simulaciones\SedraConPablomenos05_ari.asc

Early termination of direct N-R iteration.
Direct Newton iteration failed to find .op point.  (Use ".option noopiter" to skip.)
Starting Gmin stepping
Gmin = 10
vernier = 0.5
vernier = 0.25
vernier = 0.125
Gmin = 5.841
vernier = 0.0625
vernier = 0.03125
vernier = 0.015625
vernier = 0.0078125
Gmin = 5.97672
vernier = 0.00390625
vernier = 0.00195313
vernier = 0.000976563
vernier = 0.000488281
Gmin = 5.98328
Gmin = 0
Gmin stepping failed

Starting source stepping with srcstepmethod=0
Source Step = 3.0303%
Source Step = 33.3333%
Source Step = 63.6364%
Source Step = 93.9394%
Source stepping succeeded in finding the operating point.


Date: Wed Oct 31 12:38:17 2018
Total elapsed time: 0.758 seconds.

tnom = 27
temp = 27
method = modified trap
totiter = 10492
traniter = 8835
tranpoints = 4184
accept = 3262
rejected = 922
matrix size = 100
fillins = 954
solver = Normal
Thread vector: 10.1/8.2[2] 3.1/2.5[2] 5.7/3.2[2] 1.4/1.6[1]  2592/500
Matrix Compiler1: 108.32 KB object code size  19.3/11.2/[5.7]
Matrix Compiler2: 25.86 KB object code size  5.7/4.9/[1.6]

