Circuit: * C:\Users\newtonis\InformesTC\TP5\EJ3\Simulaciones\SedraConPablomenos05_ari.asc

Early termination of direct N-R iteration.
Direct Newton iteration failed to find .op point.  (Use ".option noopiter" to skip.)
Starting Gmin stepping
Gmin = 10
vernier = 0.5
vernier = 0.25
vernier = 0.125
Gmin = 5.841
vernier = 0.0625
vernier = 0.03125
vernier = 0.015625
vernier = 0.0078125
Gmin = 5.97672
vernier = 0.00390625
vernier = 0.00195313
vernier = 0.000976563
vernier = 0.000488281
Gmin = 5.98328
Gmin = 0
Gmin stepping failed

Starting source stepping with srcstepmethod=0
Source Step = 3.0303%
Source Step = 33.3333%
Source Step = 63.6364%
Source Step = 93.9394%
Source stepping succeeded in finding the operating point.

.step run=1
.step run=2
.step run=3
.step run=4
.step run=5
.step run=6
.step run=7
.step run=8
.step run=9
.step run=10

Date: Sun Oct 28 11:43:50 2018
Total elapsed time: 46.827 seconds.

tnom = 27
temp = 27
method = modified trap
totiter = 172295
traniter = 170634
tranpoints = 63818
accept = 48564
rejected = 15254
matrix size = 100
fillins = 936
solver = Normal
Thread vector: 9.9/6.0[2] 4.8/4.4[1] 3.0/2.8[1] 1.1/1.5[1]  2592/500
Matrix Compiler1: 121.97 KB object code size  23.2/14.6/[10.8]
Matrix Compiler2: 25.25 KB object code size  5.6/3.6/[1.9]

