Circuit: * C:\Users\newtonis\InformesTC\TP5\EJ3\Simulaciones\sedra_oscilaciones.asc

Direct Newton iteration for .op point succeeded.

Date: Sat Nov 24 15:28:14 2018
Total elapsed time: 0.714 seconds.

tnom = 27
temp = 27
method = trap
totiter = 28
traniter = 0
tranpoints = 0
accept = 0
rejected = 0
matrix size = 78
fillins = 155
solver = Normal
Matrix Compiler1:     700 opcodes
Matrix Compiler2: 9.45 KB object code size
