Circuit: * C:\Users\joa-m\InformesTC\TP5\EJ3\Simulaciones\SedraConPablomenos05.asc

WARNING: Less than two connections to node NC_01.  This node is used by V1.
Early termination of direct N-R iteration.
Direct Newton iteration failed to find .op point.  (Use ".option noopiter" to skip.)
Starting Gmin stepping
Gmin = 10
vernier = 0.5
vernier = 0.25
vernier = 0.125
Gmin = 5.841
vernier = 0.0625
vernier = 0.03125
vernier = 0.015625
vernier = 0.0078125
Gmin = 5.97672
vernier = 0.00390625
vernier = 0.00195313
vernier = 0.000976563
vernier = 0.000488281
Gmin = 5.98328
Gmin = 0
Gmin stepping failed

Starting source stepping with srcstepmethod=0
Source Step = 3.0303%
Source Step = 33.3333%
Source Step = 63.6364%
Source Step = 93.9394%
Source stepping succeeded in finding the operating point.


Date: Tue Oct 30 08:14:11 2018
Total elapsed time: 0.484 seconds.

tnom = 27
temp = 27
method = modified trap
totiter = 9675
traniter = 8030
tranpoints = 4016
accept = 2418
rejected = 1598
matrix size = 80
fillins = 572
solver = Normal
Thread vector: 5.6/4.1[2] 1.7/1.6[1] 3.6/2.8[2] 0.6/1.2[1]  2592/500
Matrix Compiler1: 63.47 KB object code size  9.9/4.7/[2.2]
Matrix Compiler2: 16.97 KB object code size  3.7/2.6/[1.0]

