Circuit: * C:\Users\joa-m\InformesTC\TP5\EJ3\Simulaciones\SedraConPablomenos05.asc

WARNING: Node N007 is floating.

WARNING: Less than two connections to node N007.  This node is used by J:U9:2.
Early termination of direct N-R iteration.
Direct Newton iteration failed to find .op point.  (Use ".option noopiter" to skip.)
Starting Gmin stepping
Gmin = 10
vernier = 0.5
vernier = 0.25
vernier = 0.125
Gmin = 5.841
vernier = 0.0625
vernier = 0.03125
vernier = 0.015625
vernier = 0.0078125
Gmin = 5.97672
vernier = 0.00390625
vernier = 0.00195313
vernier = 0.000976563
vernier = 0.000488281
Gmin = 5.98328
Gmin = 0
Gmin stepping failed

Starting source stepping with srcstepmethod=0
Source Step = 3.0303%
Source Step = 33.3333%
Source Step = 63.6364%
Source Step = 93.9394%
Source stepping succeeded in finding the operating point.


Date: Tue Oct 30 21:47:06 2018
Total elapsed time: 0.342 seconds.

tnom = 27
temp = 27
method = trap
totiter = 1683
traniter = 0
tranpoints = 0
accept = 0
rejected = 0
matrix size = 79
fillins = 262
solver = Normal
Matrix Compiler1:    1086 opcodes
Matrix Compiler2: 11.51 KB object code size  4.0/2.4/[0.7]

