Circuit: * C:\Users\Marcelo\Documents\GitHub\InformesTC\TP5\EJ1\Simulacion\FiltroLP.asc

Ignoring empty pin current: Ix(u1:1)
Ignoring empty pin current: Ix(u1:2)
Ignoring empty pin current: Ix(u2:1)
Ignoring empty pin current: Ix(u2:2)
Ignoring empty pin current: Ix(u3:1)
Ignoring empty pin current: Ix(u3:2)
Ignoring empty pin current: Ix(u4:1)
Ignoring empty pin current: Ix(u4:2)

Date: Wed Oct 24 02:49:02 2018
Total elapsed time: 0.032 seconds.

tnom = 27
temp = 27
method = trap
totiter = 0
traniter = 0
tranpoints = 0
accept = 0
rejected = 0
matrix size = 13
fillins = 11
solver = Normal

