Circuit: * C:\Users\Marcelo\Documents\GitHub\InformesTC\TP7\Simulacion\CompletoV2\FiltroHP_N10_MCV2.asc

Early termination of direct N-R iteration.
Direct Newton iteration failed to find .op point.  (Use ".option noopiter" to skip.)
Starting Gmin stepping
Gmin = 10
vernier = 0.5
vernier = 0.25
vernier = 0.125
Gmin = 5.49741
vernier = 0.0625
vernier = 0.03125
vernier = 0.015625
vernier = 0.0078125
Gmin = 5.51716
vernier = 0.00390625
vernier = 0.00195313
vernier = 0.000976563
vernier = 0.000488281
Gmin = 5.50104
Gmin = 0
Gmin stepping failed

Starting source stepping with srcstepmethod=0
Source Step = 3.0303%
Source Step = 33.3333%
Source Step = 63.6364%
Source Step = 93.9394%
Source stepping succeeded in finding the operating point.


Date: Thu Nov 22 16:51:56 2018
Total elapsed time: 9.201 seconds.

tnom = 27
temp = 27
method = trap
totiter = 1656
traniter = 0
tranpoints = 0
accept = 0
rejected = 0
matrix size = 334
fillins = 9457
solver = Normal
Matrix Compiler1:  204478 opcodes
Matrix Compiler2: 194.02 KB object code size  43.3/22.0/[14.3]

